data_image0
_chemical_formula_structural       O4HO3HOC7HC2HCHCHC2HCHC4HCHC2HCHO4HO3HOC7HC2HCHCHC2HCHC4HCHC2HCHBa2O4HO3HOC7HC2HCHCHC2HCHC4HCHC2HCHO4HO3HOC7HC2HCHCHC2HCHC4HCHC2HCHBa2
_chemical_formula_sum              "O32 H48 C88 Ba4"
_cell_length_a       15.845
_cell_length_b       12.5631
_cell_length_c       14.0398
_cell_angle_alpha    114.96
_cell_angle_beta     94.483
_cell_angle_gamma    104.346

_space_group_name_H-M_alt    "P 1"
_space_group_IT_number       1

loop_
  _space_group_symop_operation_xyz
  'x, y, z'

loop_
  _atom_site_type_symbol
  _atom_site_label
  _atom_site_symmetry_multiplicity
  _atom_site_fract_x
  _atom_site_fract_y
  _atom_site_fract_z
  _atom_site_occupancy
  O   O1        1.0  0.16340  0.42940  0.01812  1.0000
  O   O2        1.0  0.10185  0.22540  0.92443  1.0000
  O   O3        1.0  0.32165  0.47560  0.20050  1.0000
  O   O4        1.0  0.33425  0.96180  0.12730  1.0000
  H   H1        1.0  0.35700  0.90430  0.11130  1.0000
  O   O5        1.0  0.44135  0.62450  0.22070  1.0000
  O   O6        1.0  0.20985  0.81090  0.09670  1.0000
  O   O7        1.0  0.28735  0.54120  0.67114  1.0000
  H   H2        1.0  0.24940  0.53960  0.70950  1.0000
  O   O8        1.0  0.25735  0.34200  0.63230  1.0000
  C   C1        1.0  0.11265  0.32770  0.00540  1.0000
  C   C2        1.0  0.05850  0.33210  0.09020  1.0000
  C   C3        1.0  0.24690  0.91610  0.11270  1.0000
  C   C4        1.0  0.33485  0.41460  0.52190  1.0000
  C   C5        1.0  0.40450  0.51800  0.20730  1.0000
  C   C6        1.0  0.05265  0.25700  0.14160  1.0000
  C   C7        1.0  0.19375  0.19830  0.12420  1.0000
  H   H3        1.0  0.22320  0.27450  0.12500  1.0000
  C   C8        1.0  0.29010  0.42890  0.61390  1.0000
  C   C9        1.0  0.24075  0.11720  0.12050  1.0000
  H   H4        1.0  0.30260  0.13910  0.12060  1.0000
  C   C10       1.0  0.01190  0.41790  0.11750  1.0000
  H   H5        1.0  0.01635  0.46880  0.08260  1.0000
  C   C11       1.0  0.33375  0.29790  0.44990  1.0000
  H   H6        1.0  0.30720  0.22930  0.46180  1.0000
  C   C12       1.0  0.41165  0.38020  0.34270  1.0000
  C   C13       1.0  0.41525  0.49840  0.41790  1.0000
  H   H7        1.0  0.44480  0.56790  0.40860  1.0000
  C   C14       1.0  0.00200  0.27510  0.22110  1.0000
  H   H8        1.0  0.49915  0.22620  0.25770  1.0000
  C   C15       1.0  0.19790  0.00460  0.11670  1.0000
  C   C16       1.0  0.45560  0.36080  0.24950  1.0000
  C   C17       1.0  0.45910  0.43210  0.19400  1.0000
  C   C18       1.0  0.37620  0.51540  0.50580  1.0000
  H   H9        1.0  0.37765  0.59610  0.55530  1.0000
  C   C19       1.0  0.37090  0.28010  0.36060  1.0000
  H   H10       1.0  0.36865  0.19900  0.31110  1.0000
  C   C20       1.0  0.10320  0.16780  0.12650  1.0000
  C   C21       1.0  0.10655  0.97090  0.11440  1.0000
  H   H11       1.0  0.07650  0.89240  0.10890  1.0000
  C   C22       1.0  0.06010  0.05270  0.12030  1.0000
  H   H12       1.0  0.49825  0.03050  0.12000  1.0000
  O   O9        1.0  0.33660  0.57060  0.98188  1.0000
  O   O10       1.0  0.39815  0.77460  0.07557  1.0000
  O   O11       1.0  0.17835  0.52440  0.79950  1.0000
  O   O12       1.0  0.16575  0.03820  0.87270  1.0000
  H   H13       1.0  0.14300  0.09570  0.88870  1.0000
  O   O13       1.0  0.05865  0.37550  0.77930  1.0000
  O   O14       1.0  0.29015  0.18910  0.90330  1.0000
  O   O15       1.0  0.21265  0.45880  0.32886  1.0000
  H   H14       1.0  0.25060  0.46040  0.29050  1.0000
  O   O16       1.0  0.24265  0.65800  0.36770  1.0000
  C   C23       1.0  0.38735  0.67230  0.99460  1.0000
  C   C24       1.0  0.44150  0.66790  0.90980  1.0000
  C   C25       1.0  0.25310  0.08390  0.88730  1.0000
  C   C26       1.0  0.16515  0.58540  0.47810  1.0000
  C   C27       1.0  0.09550  0.48200  0.79270  1.0000
  C   C28       1.0  0.44735  0.74300  0.85840  1.0000
  C   C29       1.0  0.30625  0.80170  0.87580  1.0000
  H   H15       1.0  0.27680  0.72550  0.87500  1.0000
  C   C30       1.0  0.20990  0.57110  0.38610  1.0000
  C   C31       1.0  0.25925  0.88280  0.87950  1.0000
  H   H16       1.0  0.19740  0.86090  0.87940  1.0000
  C   C32       1.0  0.48810  0.58210  0.88250  1.0000
  H   H17       1.0  0.48365  0.53120  0.91740  1.0000
  C   C33       1.0  0.16625  0.70210  0.55010  1.0000
  H   H18       1.0  0.19280  0.77070  0.53820  1.0000
  C   C34       1.0  0.08835  0.61980  0.65730  1.0000
  C   C35       1.0  0.08475  0.50160  0.58210  1.0000
  H   H19       1.0  0.05520  0.43210  0.59140  1.0000
  C   C36       1.0  0.49800  0.72490  0.77890  1.0000
  H   H20       1.0  0.00085  0.77380  0.74230  1.0000
  C   C37       1.0  0.30210  0.99540  0.88330  1.0000
  C   C38       1.0  0.04440  0.63920  0.75050  1.0000
  C   C39       1.0  0.04090  0.56790  0.80600  1.0000
  C   C40       1.0  0.12380  0.48460  0.49420  1.0000
  H   H21       1.0  0.12235  0.40390  0.44470  1.0000
  C   C41       1.0  0.12910  0.71990  0.63940  1.0000
  H   H22       1.0  0.13135  0.80100  0.68890  1.0000
  C   C42       1.0  0.39680  0.83220  0.87350  1.0000
  C   C43       1.0  0.39345  0.02910  0.88560  1.0000
  H   H23       1.0  0.42350  0.10760  0.89110  1.0000
  C   C44       1.0  0.43990  0.94730  0.87970  1.0000
  H   H24       1.0  0.00175  0.96950  0.88000  1.0000
  Ba  Ba1       1.0  0.27281  0.66071  0.17239  1.0000
  Ba  Ba2       1.0  0.22718  0.33929  0.82761  1.0000
  O   O17       1.0  0.66340  0.42940  0.01812  1.0000
  O   O18       1.0  0.60185  0.22540  0.92443  1.0000
  O   O19       1.0  0.82165  0.47560  0.20050  1.0000
  O   O20       1.0  0.83425  0.96180  0.12730  1.0000
  H   H25       1.0  0.85700  0.90430  0.11130  1.0000
  O   O21       1.0  0.94135  0.62450  0.22070  1.0000
  O   O22       1.0  0.70985  0.81090  0.09670  1.0000
  O   O23       1.0  0.78735  0.54120  0.67114  1.0000
  H   H26       1.0  0.74940  0.53960  0.70950  1.0000
  O   O24       1.0  0.75735  0.34200  0.63230  1.0000
  C   C45       1.0  0.61265  0.32770  0.00540  1.0000
  C   C46       1.0  0.55850  0.33210  0.09020  1.0000
  C   C47       1.0  0.74690  0.91610  0.11270  1.0000
  C   C48       1.0  0.83485  0.41460  0.52190  1.0000
  C   C49       1.0  0.90450  0.51800  0.20730  1.0000
  C   C50       1.0  0.55265  0.25700  0.14160  1.0000
  C   C51       1.0  0.69375  0.19830  0.12420  1.0000
  H   H27       1.0  0.72320  0.27450  0.12500  1.0000
  C   C52       1.0  0.79010  0.42890  0.61390  1.0000
  C   C53       1.0  0.74075  0.11720  0.12050  1.0000
  H   H28       1.0  0.80260  0.13910  0.12060  1.0000
  C   C54       1.0  0.51190  0.41790  0.11750  1.0000
  H   H29       1.0  0.51635  0.46880  0.08260  1.0000
  C   C55       1.0  0.83375  0.29790  0.44990  1.0000
  H   H30       1.0  0.80720  0.22930  0.46180  1.0000
  C   C56       1.0  0.91165  0.38020  0.34270  1.0000
  C   C57       1.0  0.91525  0.49840  0.41790  1.0000
  H   H31       1.0  0.94480  0.56790  0.40860  1.0000
  C   C58       1.0  0.50200  0.27510  0.22110  1.0000
  H   H32       1.0  0.99915  0.22620  0.25770  1.0000
  C   C59       1.0  0.69790  0.00460  0.11670  1.0000
  C   C60       1.0  0.95560  0.36080  0.24950  1.0000
  C   C61       1.0  0.95910  0.43210  0.19400  1.0000
  C   C62       1.0  0.87620  0.51540  0.50580  1.0000
  H   H33       1.0  0.87765  0.59610  0.55530  1.0000
  C   C63       1.0  0.87090  0.28010  0.36060  1.0000
  H   H34       1.0  0.86865  0.19900  0.31110  1.0000
  C   C64       1.0  0.60320  0.16780  0.12650  1.0000
  C   C65       1.0  0.60655  0.97090  0.11440  1.0000
  H   H35       1.0  0.57650  0.89240  0.10890  1.0000
  C   C66       1.0  0.56010  0.05270  0.12030  1.0000
  H   H36       1.0  0.99825  0.03050  0.12000  1.0000
  O   O25       1.0  0.83660  0.57060  0.98188  1.0000
  O   O26       1.0  0.89815  0.77460  0.07557  1.0000
  O   O27       1.0  0.67835  0.52440  0.79950  1.0000
  O   O28       1.0  0.66575  0.03820  0.87270  1.0000
  H   H37       1.0  0.64300  0.09570  0.88870  1.0000
  O   O29       1.0  0.55865  0.37550  0.77930  1.0000
  O   O30       1.0  0.79015  0.18910  0.90330  1.0000
  O   O31       1.0  0.71265  0.45880  0.32886  1.0000
  H   H38       1.0  0.75060  0.46040  0.29050  1.0000
  O   O32       1.0  0.74265  0.65800  0.36770  1.0000
  C   C67       1.0  0.88735  0.67230  0.99460  1.0000
  C   C68       1.0  0.94150  0.66790  0.90980  1.0000
  C   C69       1.0  0.75310  0.08390  0.88730  1.0000
  C   C70       1.0  0.66515  0.58540  0.47810  1.0000
  C   C71       1.0  0.59550  0.48200  0.79270  1.0000
  C   C72       1.0  0.94735  0.74300  0.85840  1.0000
  C   C73       1.0  0.80625  0.80170  0.87580  1.0000
  H   H39       1.0  0.77680  0.72550  0.87500  1.0000
  C   C74       1.0  0.70990  0.57110  0.38610  1.0000
  C   C75       1.0  0.75925  0.88280  0.87950  1.0000
  H   H40       1.0  0.69740  0.86090  0.87940  1.0000
  C   C76       1.0  0.98810  0.58210  0.88250  1.0000
  H   H41       1.0  0.98365  0.53120  0.91740  1.0000
  C   C77       1.0  0.66625  0.70210  0.55010  1.0000
  H   H42       1.0  0.69280  0.77070  0.53820  1.0000
  C   C78       1.0  0.58835  0.61980  0.65730  1.0000
  C   C79       1.0  0.58475  0.50160  0.58210  1.0000
  H   H43       1.0  0.55520  0.43210  0.59140  1.0000
  C   C80       1.0  0.99800  0.72490  0.77890  1.0000
  H   H44       1.0  0.50085  0.77380  0.74230  1.0000
  C   C81       1.0  0.80210  0.99540  0.88330  1.0000
  C   C82       1.0  0.54440  0.63920  0.75050  1.0000
  C   C83       1.0  0.54090  0.56790  0.80600  1.0000
  C   C84       1.0  0.62380  0.48460  0.49420  1.0000
  H   H45       1.0  0.62235  0.40390  0.44470  1.0000
  C   C85       1.0  0.62910  0.71990  0.63940  1.0000
  H   H46       1.0  0.63135  0.80100  0.68890  1.0000
  C   C86       1.0  0.89680  0.83220  0.87350  1.0000
  C   C87       1.0  0.89345  0.02910  0.88560  1.0000
  H   H47       1.0  0.92350  0.10760  0.89110  1.0000
  C   C88       1.0  0.93990  0.94730  0.87970  1.0000
  H   H48       1.0  0.50175  0.96950  0.88000  1.0000
  Ba  Ba3       1.0  0.77281  0.66071  0.17239  1.0000
  Ba  Ba4       1.0  0.72718  0.33929  0.82761  1.0000
