data_image0
_chemical_formula_structural       P6O9HO6HO9CHCHCHCHCHCHCHCHCHCHCHCHP6O9HO12HO3CHCHCHCHCHCHP6O9HO6HO9CHCHCHCHCHCHP6O9HO12HO3Zn20
_chemical_formula_sum              "P24 O96 H32 C24 Zn20"
_cell_length_a       11.962
_cell_length_b       14.897
_cell_length_c       22.54
_cell_angle_alpha    104.12
_cell_angle_beta     91.11
_cell_angle_gamma    106.09

_space_group_name_H-M_alt    "P 1"
_space_group_IT_number       1

loop_
  _space_group_symop_operation_xyz
  'x, y, z'

loop_
  _atom_site_type_symbol
  _atom_site_label
  _atom_site_symmetry_multiplicity
  _atom_site_fract_x
  _atom_site_fract_y
  _atom_site_fract_z
  _atom_site_occupancy
  P   P1        1.0  0.54345  0.51273  0.35471  1.0000
  P   P2        1.0  0.15170  0.42939  0.30933  1.0000
  P   P3        1.0  0.15439  0.46787  0.51326  1.0000
  P   P4        1.0  0.28510  0.78744  0.60809  1.0000
  P   P5        1.0  0.59938  0.92564  0.53390  1.0000
  P   P6        1.0  0.56827  0.80949  0.32415  1.0000
  O   O1        1.0  0.47690  0.57980  0.39800  1.0000
  O   O2        1.0  0.23880  0.47890  0.37190  1.0000
  O   O3        1.0  0.17940  0.56160  0.48700  1.0000
  O   O4        1.0  0.35070  0.72490  0.56090  1.0000
  O   O5        1.0  0.47900  0.85690  0.49660  1.0000
  O   O6        1.0  0.55300  0.77030  0.38450  1.0000
  O   O7        1.0  0.46220  0.44390  0.30280  1.0000
  O   O8        1.0  0.65170  0.57660  0.33650  1.0000
  O   O9        1.0  0.57800  0.45900  0.39900  1.0000
  H   H1        1.0  0.51930  0.43020  0.41230  1.0000
  O   O10       1.0  0.19330  0.34410  0.27760  1.0000
  O   O11       1.0  0.02910  0.39330  0.32730  1.0000
  O   O12       1.0  0.16230  0.50190  0.27150  1.0000
  O   O13       1.0  0.06520  0.38540  0.46700  1.0000
  O   O14       1.0  0.10270  0.49620  0.57370  1.0000
  O   O15       1.0  0.26630  0.44160  0.52020  1.0000
  H   H2        1.0  0.27700  0.45200  0.55860  1.0000
  O   O16       1.0  0.27610  0.87200  0.58410  1.0000
  O   O17       1.0  0.36260  0.81730  0.66730  1.0000
  O   O18       1.0  0.16250  0.72770  0.61350  1.0000
  O   O19       1.0  0.55730  0.98700  0.58830  1.0000
  O   O20       1.0  0.67350  0.86820  0.55090  1.0000
  O   O21       1.0  0.66190  0.98510  0.49200  1.0000
  O   O22       1.0  0.65870  0.76730  0.28990  1.0000
  O   O23       1.0  0.45170  0.77100  0.28780  1.0000
  O   O24       1.0  0.61720  0.91760  0.34320  1.0000
  C   C1        1.0  0.39600  0.62190  0.37490  1.0000
  H   H3        1.0  0.39160  0.60730  0.32990  1.0000
  C   C2        1.0  0.27820  0.58100  0.39610  1.0000
  H   H4        1.0  0.22150  0.61050  0.38300  1.0000
  C   C3        1.0  0.29060  0.60170  0.46610  1.0000
  H   H5        1.0  0.34720  0.57140  0.47830  1.0000
  C   C4        1.0  0.33310  0.70990  0.49550  1.0000
  H   H6        1.0  0.27520  0.74080  0.48580  1.0000
  C   C5        1.0  0.45020  0.75380  0.47250  1.0000
  H   H7        1.0  0.51090  0.72960  0.48710  1.0000
  C   C6        1.0  0.43990  0.73100  0.40340  1.0000
  H   H8        1.0  0.38500  0.76170  0.38980  1.0000
  C   C7        1.0  0.61190  0.39980  0.12940  1.0000
  H   H9        1.0  0.62290  0.41850  0.17440  1.0000
  C   C8        1.0  0.57710  0.28880  0.10510  1.0000
  H   H10       1.0  0.63820  0.26480  0.11950  1.0000
  C   C9        1.0  0.56220  0.25900  0.03470  1.0000
  H   H11       1.0  0.50060  0.28220  0.02000  1.0000
  C   C10       1.0  0.67670  0.30050  0.00860  1.0000
  H   H12       1.0  0.73770  0.27350  0.01960  1.0000
  C   C11       1.0  0.71400  0.40980  0.03220  1.0000
  H   H13       1.0  0.65690  0.43470  0.01480  1.0000
  C   C12       1.0  0.72340  0.44620  0.10310  1.0000
  H   H14       1.0  0.79100  0.43410  0.12140  1.0000
  P   P7        1.0  0.44768  0.48905  0.15512  1.0000
  P   P8        1.0  0.45870  0.19568  0.18234  1.0000
  P   P9        1.0  0.41010  0.09227  0.97356  1.0000
  P   P10       1.0  0.71187  0.21154  0.89485  1.0000
  P   P11       1.0  0.85440  0.53718  0.98163  1.0000
  P   P12       1.0  0.82658  0.63131  0.16749  1.0000
  O   O25       1.0  0.52060  0.43370  0.10840  1.0000
  O   O26       1.0  0.46960  0.24710  0.12760  1.0000
  O   O27       1.0  0.53020  0.15630  0.01470  1.0000
  O   O28       1.0  0.65360  0.27850  0.94370  1.0000
  O   O29       1.0  0.82460  0.44710  0.01110  1.0000
  O   O30       1.0  0.73980  0.54870  0.11410  1.0000
  O   O31       1.0  0.34850  0.41340  0.17140  1.0000
  O   O32       1.0  0.52390  0.56030  0.20780  1.0000
  O   O33       1.0  0.40130  0.54310  0.11460  1.0000
  H   H15       1.0  0.35750  0.50370  0.08570  1.0000
  O   O34       1.0  0.37860  0.23940  0.22500  1.0000
  O   O35       1.0  0.39640  0.08870  0.15570  1.0000
  O   O36       1.0  0.57880  0.21550  0.21290  1.0000
  O   O37       1.0  0.33520  0.03980  0.01590  1.0000
  O   O38       1.0  0.44900  0.02160  0.92350  1.0000
  O   O39       1.0  0.35050  0.15300  0.94990  1.0000
  O   O40       1.0  0.71560  0.12460  0.91700  1.0000
  O   O41       1.0  0.83640  0.26590  0.88870  1.0000
  O   O42       1.0  0.63300  0.18850  0.83650  1.0000
  O   O43       1.0  0.93860  0.62230  0.02650  1.0000
  O   O44       1.0  0.90850  0.50240  0.92320  1.0000
  O   O45       1.0  0.74260  0.56050  0.96910  1.0000
  H   H16       1.0  0.75810  0.61210  0.95970  1.0000
  O   O46       1.0  0.79290  0.61590  0.22920  1.0000
  O   O47       1.0  0.94900  0.61980  0.16220  1.0000
  O   O48       1.0  0.81230  0.72370  0.15650  1.0000
  C   C13       1.0  0.60400  0.37810  0.62510  1.0000
  H   H17       1.0  0.60840  0.39270  0.67010  1.0000
  C   C14       1.0  0.72180  0.41900  0.60390  1.0000
  H   H18       1.0  0.77850  0.38950  0.61700  1.0000
  C   C15       1.0  0.70940  0.39830  0.53390  1.0000
  H   H19       1.0  0.65280  0.42860  0.52170  1.0000
  C   C16       1.0  0.66690  0.29010  0.50450  1.0000
  H   H20       1.0  0.72480  0.25920  0.51420  1.0000
  C   C17       1.0  0.54980  0.24620  0.52750  1.0000
  H   H21       1.0  0.48910  0.27040  0.51290  1.0000
  C   C18       1.0  0.56010  0.26900  0.59660  1.0000
  H   H22       1.0  0.61500  0.23830  0.61020  1.0000
  P   P13       1.0  0.45655  0.48727  0.64529  1.0000
  P   P14       1.0  0.84830  0.57061  0.69067  1.0000
  P   P15       1.0  0.84561  0.53213  0.48674  1.0000
  P   P16       1.0  0.71490  0.21256  0.39191  1.0000
  P   P17       1.0  0.40062  0.07436  0.46610  1.0000
  P   P18       1.0  0.43173  0.19051  0.67585  1.0000
  O   O49       1.0  0.52310  0.42020  0.60200  1.0000
  O   O50       1.0  0.76120  0.52110  0.62810  1.0000
  O   O51       1.0  0.82060  0.43840  0.51300  1.0000
  O   O52       1.0  0.64930  0.27510  0.43910  1.0000
  O   O53       1.0  0.52100  0.14310  0.50340  1.0000
  O   O54       1.0  0.44700  0.22970  0.61550  1.0000
  O   O55       1.0  0.53780  0.55610  0.69720  1.0000
  O   O56       1.0  0.34830  0.42340  0.66350  1.0000
  O   O57       1.0  0.42200  0.54100  0.60100  1.0000
  H   H23       1.0  0.48070  0.56980  0.58770  1.0000
  O   O58       1.0  0.80670  0.65590  0.72240  1.0000
  O   O59       1.0  0.97090  0.60670  0.67270  1.0000
  O   O60       1.0  0.83770  0.49810  0.72850  1.0000
  O   O61       1.0  0.93480  0.61460  0.53300  1.0000
  O   O62       1.0  0.89730  0.50380  0.42630  1.0000
  O   O63       1.0  0.73370  0.55840  0.47980  1.0000
  H   H24       1.0  0.72300  0.54800  0.44140  1.0000
  O   O64       1.0  0.72390  0.12800  0.41590  1.0000
  O   O65       1.0  0.63740  0.18270  0.33270  1.0000
  O   O66       1.0  0.83750  0.27230  0.38650  1.0000
  O   O67       1.0  0.44270  0.01300  0.41170  1.0000
  O   O68       1.0  0.32650  0.13180  0.44910  1.0000
  O   O69       1.0  0.33810  0.01490  0.50800  1.0000
  O   O70       1.0  0.34130  0.23270  0.71010  1.0000
  O   O71       1.0  0.54830  0.22900  0.71220  1.0000
  O   O72       1.0  0.38280  0.08240  0.65680  1.0000
  C   C19       1.0  0.38810  0.60020  0.87060  1.0000
  H   H25       1.0  0.37710  0.58150  0.82560  1.0000
  C   C20       1.0  0.42290  0.71120  0.89490  1.0000
  H   H26       1.0  0.36180  0.73520  0.88050  1.0000
  C   C21       1.0  0.43780  0.74100  0.96530  1.0000
  H   H27       1.0  0.49940  0.71780  0.98000  1.0000
  C   C22       1.0  0.32330  0.69950  0.99140  1.0000
  H   H28       1.0  0.26230  0.72650  0.98040  1.0000
  C   C23       1.0  0.28600  0.59020  0.96780  1.0000
  H   H29       1.0  0.34310  0.56530  0.98520  1.0000
  C   C24       1.0  0.27660  0.55380  0.89690  1.0000
  H   H30       1.0  0.20900  0.56590  0.87860  1.0000
  P   P19       1.0  0.55232  0.51095  0.84488  1.0000
  P   P20       1.0  0.54130  0.80432  0.81766  1.0000
  P   P21       1.0  0.58990  0.90773  0.02644  1.0000
  P   P22       1.0  0.28813  0.78846  0.10515  1.0000
  P   P23       1.0  0.14560  0.46282  0.01837  1.0000
  P   P24       1.0  0.17342  0.36869  0.83251  1.0000
  O   O73       1.0  0.47940  0.56630  0.89160  1.0000
  O   O74       1.0  0.53040  0.75290  0.87240  1.0000
  O   O75       1.0  0.46980  0.84370  0.98530  1.0000
  O   O76       1.0  0.34640  0.72150  0.05630  1.0000
  O   O77       1.0  0.17540  0.55290  0.98890  1.0000
  O   O78       1.0  0.26020  0.45130  0.88590  1.0000
  O   O79       1.0  0.65150  0.58660  0.82860  1.0000
  O   O80       1.0  0.47610  0.43970  0.79220  1.0000
  O   O81       1.0  0.59870  0.45690  0.88540  1.0000
  H   H31       1.0  0.64250  0.49630  0.91430  1.0000
  O   O82       1.0  0.62140  0.76060  0.77500  1.0000
  O   O83       1.0  0.60360  0.91130  0.84430  1.0000
  O   O84       1.0  0.42120  0.78450  0.78710  1.0000
  O   O85       1.0  0.66480  0.96020  0.98410  1.0000
  O   O86       1.0  0.55100  0.97840  0.07650  1.0000
  O   O87       1.0  0.64950  0.84700  0.05010  1.0000
  O   O88       1.0  0.28440  0.87540  0.08300  1.0000
  O   O89       1.0  0.16360  0.73410  0.11130  1.0000
  O   O90       1.0  0.36700  0.81150  0.16350  1.0000
  O   O91       1.0  0.06140  0.37770  0.97350  1.0000
  O   O92       1.0  0.09150  0.49760  0.07680  1.0000
  O   O93       1.0  0.25740  0.43950  0.03090  1.0000
  H   H32       1.0  0.24190  0.38790  0.04030  1.0000
  O   O94       1.0  0.20710  0.38410  0.77080  1.0000
  O   O95       1.0  0.05100  0.38020  0.83780  1.0000
  O   O96       1.0  0.18770  0.27630  0.84350  1.0000
  Zn  Zn1       1.0  0.34220  0.36085  0.24155  1.0000
  Zn  Zn2       1.0  0.65544  0.63277  0.26688  1.0000
  Zn  Zn3       1.0  0.95778  0.39376  0.40439  1.0000
  Zn  Zn4       1.0  0.39444  0.98868  0.58159  1.0000
  Zn  Zn5       1.0  0.39695  0.99533  0.07929  1.0000
  Zn  Zn6       1.0  0.04254  0.61419  0.09316  1.0000
  Zn  Zn7       1.0  0.71787  0.78075  0.10385  1.0000
  Zn  Zn8       1.0  0.32116  0.78336  0.24219  1.0000
  Zn  Zn9       1.0  0.32866  0.85826  0.75626  1.0000
  Zn  Zn10      1.0  0.70938  0.79573  0.60488  1.0000
  Zn  Zn11      1.0  0.65780  0.63915  0.75845  1.0000
  Zn  Zn12      1.0  0.34456  0.36723  0.73312  1.0000
  Zn  Zn13      1.0  0.04222  0.60624  0.59561  1.0000
  Zn  Zn14      1.0  0.60556  0.01132  0.41841  1.0000
  Zn  Zn15      1.0  0.60305  0.00467  0.92071  1.0000
  Zn  Zn16      1.0  0.95746  0.38581  0.90684  1.0000
  Zn  Zn17      1.0  0.28213  0.21925  0.89615  1.0000
  Zn  Zn18      1.0  0.67884  0.21664  0.75781  1.0000
  Zn  Zn19      1.0  0.67134  0.14174  0.24374  1.0000
  Zn  Zn20      1.0  0.29062  0.20427  0.39512  1.0000
