data_image0
_chemical_formula_structural       CO2C3O2C2O2CO2CO2CO2CO2CO2CZn2K2CO2C3O2C2O2CO2CO2CO2CO2CO2CZn2K2
_chemical_formula_sum              "C24 O32 Zn4 K4"
_cell_length_a       15.8076
_cell_length_b       9.2715
_cell_length_c       9.2904
_cell_angle_alpha    61.644
_cell_angle_beta     72.462
_cell_angle_gamma    82.794

_space_group_name_H-M_alt    "P 1"
_space_group_IT_number       1

loop_
  _space_group_symop_operation_xyz
  'x, y, z'

loop_
  _atom_site_type_symbol
  _atom_site_label
  _atom_site_symmetry_multiplicity
  _atom_site_fract_x
  _atom_site_fract_y
  _atom_site_fract_z
  _atom_site_occupancy
  C   C1        1.0  0.13290  0.59250  0.50600  1.0000
  O   O1        1.0  0.45070  0.45790  0.20880  1.0000
  O   O2        1.0  0.01880  0.35060  0.41490  1.0000
  C   C2        1.0  0.28910  0.49890  0.42800  1.0000
  C   C3        1.0  0.44800  0.41030  0.35610  1.0000
  C   C4        1.0  0.36710  0.40750  0.49400  1.0000
  O   O3        1.0  0.04930  0.54210  0.79120  1.0000
  O   O4        1.0  0.48120  0.64940  0.58510  1.0000
  C   C5        1.0  0.21090  0.50110  0.57200  1.0000
  C   C6        1.0  0.05200  0.58970  0.64390  1.0000
  O   O5        1.0  0.32834  0.35940  0.96851  1.0000
  O   O6        1.0  0.33031  0.63274  0.82227  1.0000
  C   C7        1.0  0.29595  0.49660  0.94010  1.0000
  O   O7        1.0  0.17166  0.64060  0.03149  1.0000
  O   O8        1.0  0.16970  0.36726  0.17773  1.0000
  C   C8        1.0  0.20405  0.50340  0.05990  1.0000
  O   O9        1.0  0.17225  0.14024  0.03428  1.0000
  O   O10       1.0  0.18045  0.00945  0.88153  1.0000
  C   C9        1.0  0.20730  0.04360  0.97590  1.0000
  O   O11       1.0  0.32775  0.85976  0.96572  1.0000
  O   O12       1.0  0.31955  0.99055  0.11847  1.0000
  C   C10       1.0  0.29270  0.95640  0.02410  1.0000
  O   O13       1.0  0.33351  0.99255  0.59037  1.0000
  O   O14       1.0  0.32696  0.14048  0.32268  1.0000
  C   C11       1.0  0.29660  0.03880  0.47440  1.0000
  O   O15       1.0  0.16649  0.00745  0.40963  1.0000
  O   O16       1.0  0.17304  0.85952  0.67732  1.0000
  C   C12       1.0  0.20340  0.96120  0.52560  1.0000
  Zn  Zn1       1.0  0.24415  0.16750  0.17370  1.0000
  Zn  Zn2       1.0  0.25586  0.83250  0.82630  1.0000
  K   K1        1.0  0.49016  0.23888  0.05498  1.0000
  K   K2        1.0  0.00985  0.76112  0.94502  1.0000
  C   C13       1.0  0.63290  0.59250  0.50600  1.0000
  O   O17       1.0  0.95070  0.45790  0.20880  1.0000
  O   O18       1.0  0.51880  0.35060  0.41490  1.0000
  C   C14       1.0  0.78910  0.49890  0.42800  1.0000
  C   C15       1.0  0.94800  0.41030  0.35610  1.0000
  C   C16       1.0  0.86710  0.40750  0.49400  1.0000
  O   O19       1.0  0.54930  0.54210  0.79120  1.0000
  O   O20       1.0  0.98120  0.64940  0.58510  1.0000
  C   C17       1.0  0.71090  0.50110  0.57200  1.0000
  C   C18       1.0  0.55200  0.58970  0.64390  1.0000
  O   O21       1.0  0.82834  0.35940  0.96851  1.0000
  O   O22       1.0  0.83030  0.63274  0.82227  1.0000
  C   C19       1.0  0.79595  0.49660  0.94010  1.0000
  O   O23       1.0  0.67166  0.64060  0.03149  1.0000
  O   O24       1.0  0.66969  0.36726  0.17773  1.0000
  C   C20       1.0  0.70405  0.50340  0.05990  1.0000
  O   O25       1.0  0.67225  0.14024  0.03428  1.0000
  O   O26       1.0  0.68044  0.00945  0.88153  1.0000
  C   C21       1.0  0.70730  0.04360  0.97590  1.0000
  O   O27       1.0  0.82775  0.85976  0.96572  1.0000
  O   O28       1.0  0.81956  0.99055  0.11847  1.0000
  C   C22       1.0  0.79270  0.95640  0.02410  1.0000
  O   O29       1.0  0.83351  0.99255  0.59037  1.0000
  O   O30       1.0  0.82696  0.14048  0.32268  1.0000
  C   C23       1.0  0.79660  0.03880  0.47440  1.0000
  O   O31       1.0  0.66649  0.00745  0.40963  1.0000
  O   O32       1.0  0.67304  0.85952  0.67732  1.0000
  C   C24       1.0  0.70340  0.96120  0.52560  1.0000
  Zn  Zn3       1.0  0.74414  0.16750  0.17370  1.0000
  Zn  Zn4       1.0  0.75586  0.83250  0.82630  1.0000
  K   K3        1.0  0.99016  0.23888  0.05498  1.0000
  K   K4        1.0  0.50984  0.76112  0.94502  1.0000
