data_image0
_chemical_formula_structural       CO4COCO3C2O4CO4C2O2CO3COEu4CO4COCO3C2O4CO4C2O2CO3COEu4
_chemical_formula_sum              "C20 O44 Eu8"
_cell_length_a       12.5848
_cell_length_b       8.6702
_cell_length_c       12.9527
_cell_angle_alpha    105.432
_cell_angle_beta     90.451
_cell_angle_gamma    105.118

_space_group_name_H-M_alt    "P 1"
_space_group_IT_number       1

loop_
  _space_group_symop_operation_xyz
  'x, y, z'

loop_
  _atom_site_type_symbol
  _atom_site_label
  _atom_site_symmetry_multiplicity
  _atom_site_fract_x
  _atom_site_fract_y
  _atom_site_fract_z
  _atom_site_occupancy
  C   C1        1.0  0.47280  0.55190  0.04580  1.0000
  O   O1        1.0  0.00990  0.29790  0.94460  1.0000
  O   O2        1.0  0.08665  0.52850  0.89680  1.0000
  O   O3        1.0  0.49010  0.70210  0.05540  1.0000
  O   O4        1.0  0.41335  0.47150  0.10320  1.0000
  C   C2        1.0  0.02720  0.44810  0.95420  1.0000
  O   O5        1.0  0.31970  0.62860  0.61940  1.0000
  C   C3        1.0  0.20260  0.42050  0.47950  1.0000
  O   O6        1.0  0.34300  0.64920  0.45360  1.0000
  O   O7        1.0  0.18030  0.37140  0.38060  1.0000
  O   O8        1.0  0.15700  0.35080  0.54640  1.0000
  C   C4        1.0  0.29740  0.57950  0.52050  1.0000
  C   C5        1.0  0.13285  0.10450  0.78050  1.0000
  O   O9        1.0  0.08255  0.96040  0.77700  1.0000
  O   O10       1.0  0.11685  0.18350  0.71680  1.0000
  O   O11       1.0  0.27875  0.34110  0.87360  1.0000
  O   O12       1.0  0.24710  0.11600  0.93350  1.0000
  C   C6        1.0  0.22825  0.19670  0.87110  1.0000
  O   O13       1.0  0.41745  0.03960  0.22300  1.0000
  O   O14       1.0  0.38315  0.81650  0.28320  1.0000
  O   O15       1.0  0.22125  0.65890  0.12640  1.0000
  O   O16       1.0  0.25290  0.88400  0.06650  1.0000
  C   C7        1.0  0.27175  0.80330  0.12890  1.0000
  C   C8        1.0  0.36715  0.89550  0.21950  1.0000
  O   O17       1.0  0.41985  0.93190  0.92450  1.0000
  O   O18       1.0  0.25625  0.76920  0.83950  1.0000
  C   C9        1.0  0.35845  0.79270  0.86870  1.0000
  O   O19       1.0  0.39875  0.66900  0.83870  1.0000
  O   O20       1.0  0.08015  0.06810  0.07550  1.0000
  O   O21       1.0  0.24375  0.23080  0.16050  1.0000
  C   C10       1.0  0.14155  0.20730  0.13130  1.0000
  O   O22       1.0  0.10125  0.33100  0.16130  1.0000
  Eu  Eu1       1.0  0.27931  0.52867  0.25736  1.0000
  Eu  Eu2       1.0  0.22068  0.47133  0.74264  1.0000
  Eu  Eu3       1.0  0.09540  0.83336  0.92483  1.0000
  Eu  Eu4       1.0  0.40460  0.16664  0.07517  1.0000
  C   C11       1.0  0.97280  0.55190  0.04580  1.0000
  O   O23       1.0  0.50990  0.29790  0.94460  1.0000
  O   O24       1.0  0.58665  0.52850  0.89680  1.0000
  O   O25       1.0  0.99010  0.70210  0.05540  1.0000
  O   O26       1.0  0.91335  0.47150  0.10320  1.0000
  C   C12       1.0  0.52720  0.44810  0.95420  1.0000
  O   O27       1.0  0.81970  0.62860  0.61940  1.0000
  C   C13       1.0  0.70260  0.42050  0.47950  1.0000
  O   O28       1.0  0.84300  0.64920  0.45360  1.0000
  O   O29       1.0  0.68030  0.37140  0.38060  1.0000
  O   O30       1.0  0.65700  0.35080  0.54640  1.0000
  C   C14       1.0  0.79740  0.57950  0.52050  1.0000
  C   C15       1.0  0.63285  0.10450  0.78050  1.0000
  O   O31       1.0  0.58255  0.96040  0.77700  1.0000
  O   O32       1.0  0.61685  0.18350  0.71680  1.0000
  O   O33       1.0  0.77875  0.34110  0.87360  1.0000
  O   O34       1.0  0.74710  0.11600  0.93350  1.0000
  C   C16       1.0  0.72825  0.19670  0.87110  1.0000
  O   O35       1.0  0.91745  0.03960  0.22300  1.0000
  O   O36       1.0  0.88315  0.81650  0.28320  1.0000
  O   O37       1.0  0.72125  0.65890  0.12640  1.0000
  O   O38       1.0  0.75290  0.88400  0.06650  1.0000
  C   C17       1.0  0.77175  0.80330  0.12890  1.0000
  C   C18       1.0  0.86715  0.89550  0.21950  1.0000
  O   O39       1.0  0.91985  0.93190  0.92450  1.0000
  O   O40       1.0  0.75625  0.76920  0.83950  1.0000
  C   C19       1.0  0.85845  0.79270  0.86870  1.0000
  O   O41       1.0  0.89875  0.66900  0.83870  1.0000
  O   O42       1.0  0.58015  0.06810  0.07550  1.0000
  O   O43       1.0  0.74375  0.23080  0.16050  1.0000
  C   C20       1.0  0.64155  0.20730  0.13130  1.0000
  O   O44       1.0  0.60125  0.33100  0.16130  1.0000
  Eu  Eu5       1.0  0.77931  0.52867  0.25736  1.0000
  Eu  Eu6       1.0  0.72069  0.47133  0.74264  1.0000
  Eu  Eu7       1.0  0.59540  0.83336  0.92483  1.0000
  Eu  Eu8       1.0  0.90460  0.16664  0.07517  1.0000
