data_image0
_chemical_formula_structural       PO3NHCH2CH2CH2PO3NHCH2CH2CH2PO3NHCH2CH2CH2PO3NHCH2CH2CH2SO5HO2HCHC2HC2HC3SO5HO2HCHC2HC2HC3Tb2PO3NHCH2CH2CH2PO3NHCH2CH2CH2PO3NHCH2CH2CH2PO3NHCH2CH2CH2SO5HO2HCHC2HC2HC3SO5HO2HCHC2HC2HC3Tb2
_chemical_formula_sum              "P8 O52 N8 H76 C56 S4 Tb4"
_cell_length_a       15.3354
_cell_length_b       12.6996
_cell_length_c       12.715
_cell_angle_alpha    75.365
_cell_angle_beta     72.85
_cell_angle_gamma    74.05

_space_group_name_H-M_alt    "P 1"
_space_group_IT_number       1

loop_
  _space_group_symop_operation_xyz
  'x, y, z'

loop_
  _atom_site_type_symbol
  _atom_site_label
  _atom_site_symmetry_multiplicity
  _atom_site_fract_x
  _atom_site_fract_y
  _atom_site_fract_z
  _atom_site_occupancy
  P   P1        1.0  0.12907  0.16913  0.59551  1.0000
  O   O1        1.0  0.17020  0.07310  0.52900  1.0000
  O   O2        1.0  0.20555  0.23500  0.56420  1.0000
  O   O3        1.0  0.09255  0.12800  0.71840  1.0000
  N   N1        1.0  0.03920  0.38030  0.50240  1.0000
  H   H1        1.0  0.10170  0.38418  0.45419  1.0000
  C   C1        1.0  0.02510  0.43360  0.60010  1.0000
  H   H2        1.0  0.07225  0.39382  0.64126  1.0000
  H   H3        1.0  0.46433  0.42821  0.64997  1.0000
  C   C2        1.0  0.46880  0.44510  0.43660  1.0000
  H   H4        1.0  0.40654  0.43988  0.48216  1.0000
  H   H5        1.0  0.47943  0.41304  0.37109  1.0000
  C   C3        1.0  0.03260  0.25970  0.53690  1.0000
  H   H6        1.0  0.03141  0.23346  0.47214  1.0000
  H   H7        1.0  0.47417  0.25407  0.59218  1.0000
  P   P2        1.0  0.37092  0.83087  0.40449  1.0000
  O   O4        1.0  0.32980  0.92690  0.47100  1.0000
  O   O5        1.0  0.29445  0.76500  0.43580  1.0000
  O   O6        1.0  0.40745  0.87200  0.28160  1.0000
  N   N2        1.0  0.46080  0.61970  0.49760  1.0000
  H   H8        1.0  0.39830  0.61582  0.54581  1.0000
  C   C4        1.0  0.47490  0.56640  0.39990  1.0000
  H   H9        1.0  0.42774  0.60618  0.35874  1.0000
  H   H10       1.0  0.03567  0.57179  0.35003  1.0000
  C   C5        1.0  0.03120  0.55490  0.56340  1.0000
  H   H11       1.0  0.09345  0.56012  0.51784  1.0000
  H   H12       1.0  0.02057  0.58696  0.62891  1.0000
  C   C6        1.0  0.46740  0.74030  0.46310  1.0000
  H   H13       1.0  0.46858  0.76654  0.52786  1.0000
  H   H14       1.0  0.02583  0.74593  0.40782  1.0000
  P   P3        1.0  0.42157  0.96648  0.68770  1.0000
  O   O7        1.0  0.36945  0.87190  0.72540  1.0000
  O   O8        1.0  0.37110  0.06610  0.61700  1.0000
  O   O9        1.0  0.02345  0.92960  0.63530  1.0000
  N   N3        1.0  0.33330  0.97940  0.90960  1.0000
  H   H15       1.0  0.33148  0.90241  0.91150  1.0000
  C   C7        1.0  0.24355  0.05240  0.88740  1.0000
  H   H16       1.0  0.23904  0.04923  0.81380  1.0000
  H   H17       1.0  0.24177  0.12899  0.88873  1.0000
  C   C8        1.0  0.33845  0.98640  0.02370  1.0000
  H   H18       1.0  0.33707  0.06272  0.02575  1.0000
  H   H19       1.0  0.39677  0.94006  0.03925  1.0000
  C   C9        1.0  0.41660  0.00710  0.81900  1.0000
  H   H20       1.0  0.47323  0.96855  0.84353  1.0000
  H   H21       1.0  0.41337  0.08654  0.80541  1.0000
  P   P4        1.0  0.07842  0.03352  0.31230  1.0000
  O   O10       1.0  0.13055  0.12810  0.27460  1.0000
  O   O11       1.0  0.12890  0.93390  0.38300  1.0000
  O   O12       1.0  0.47655  0.07040  0.36470  1.0000
  N   N4        1.0  0.16670  0.02060  0.09040  1.0000
  H   H22       1.0  0.16852  0.09759  0.08850  1.0000
  C   C10       1.0  0.25645  0.94760  0.11260  1.0000
  H   H23       1.0  0.26095  0.95077  0.18620  1.0000
  H   H24       1.0  0.25822  0.87101  0.11127  1.0000
  C   C11       1.0  0.16155  0.01360  0.97630  1.0000
  H   H25       1.0  0.16293  0.93728  0.97425  1.0000
  H   H26       1.0  0.10323  0.05994  0.96075  1.0000
  C   C12       1.0  0.08340  0.99290  0.18100  1.0000
  H   H27       1.0  0.02677  0.03145  0.15647  1.0000
  H   H28       1.0  0.08663  0.91346  0.19459  1.0000
  S   S1        1.0  0.28772  0.40046  0.31220  1.0000
  O   O13       1.0  0.34650  0.29630  0.35630  1.0000
  O   O14       1.0  0.19350  0.39070  0.32620  1.0000
  O   O15       1.0  0.29355  0.49380  0.35290  1.0000
  O   O16       1.0  0.45560  0.16130  0.98750  1.0000
  O   O17       1.0  0.00695  0.28190  0.83580  1.0000
  H   H29       1.0  0.03880  0.22489  0.81333  1.0000
  O   O18       1.0  0.33335  0.74930  0.97240  1.0000
  O   O19       1.0  0.41420  0.67480  0.82240  1.0000
  H   H30       1.0  0.40751  0.74018  0.79060  1.0000
  C   C13       1.0  0.33375  0.53370  0.10620  1.0000
  H   H31       1.0  0.30692  0.59354  0.14334  1.0000
  C   C14       1.0  0.37200  0.55210  0.99080  1.0000
  C   C15       1.0  0.41290  0.46280  0.93670  1.0000
  H   H32       1.0  0.43884  0.47528  0.85988  1.0000
  C   C16       1.0  0.41560  0.35440  0.99620  1.0000
  C   C17       1.0  0.37620  0.33560  0.11090  1.0000
  H   H33       1.0  0.37683  0.26313  0.15065  1.0000
  C   C18       1.0  0.33610  0.42460  0.16550  1.0000
  C   C19       1.0  0.37070  0.66920  0.92740  1.0000
  C   C20       1.0  0.45965  0.25590  0.94000  1.0000
  S   S2        1.0  0.21227  0.59954  0.68780  1.0000
  O   O20       1.0  0.15350  0.70370  0.64370  1.0000
  O   O21       1.0  0.30650  0.60930  0.67380  1.0000
  O   O22       1.0  0.20645  0.50620  0.64710  1.0000
  O   O23       1.0  0.04440  0.83870  0.01250  1.0000
  O   O24       1.0  0.49305  0.71810  0.16420  1.0000
  H   H34       1.0  0.46120  0.77511  0.18667  1.0000
  O   O25       1.0  0.16665  0.25070  0.02760  1.0000
  O   O26       1.0  0.08580  0.32520  0.17760  1.0000
  H   H35       1.0  0.09248  0.25982  0.20940  1.0000
  C   C21       1.0  0.16625  0.46630  0.89380  1.0000
  H   H36       1.0  0.19307  0.40646  0.85666  1.0000
  C   C22       1.0  0.12800  0.44790  0.00920  1.0000
  C   C23       1.0  0.08710  0.53720  0.06330  1.0000
  H   H37       1.0  0.06116  0.52472  0.14012  1.0000
  C   C24       1.0  0.08440  0.64560  0.00380  1.0000
  C   C25       1.0  0.12380  0.66440  0.88910  1.0000
  H   H38       1.0  0.12316  0.73687  0.84935  1.0000
  C   C26       1.0  0.16390  0.57540  0.83450  1.0000
  C   C27       1.0  0.12930  0.33080  0.07260  1.0000
  C   C28       1.0  0.04035  0.74410  0.06000  1.0000
  Tb  Tb1       1.0  0.32702  0.11575  0.45429  1.0000
  Tb  Tb2       1.0  0.17298  0.88425  0.54571  1.0000
  P   P5        1.0  0.62907  0.16913  0.59551  1.0000
  O   O27       1.0  0.67020  0.07310  0.52900  1.0000
  O   O28       1.0  0.70555  0.23500  0.56420  1.0000
  O   O29       1.0  0.59255  0.12800  0.71840  1.0000
  N   N5        1.0  0.53920  0.38030  0.50240  1.0000
  H   H39       1.0  0.60170  0.38418  0.45419  1.0000
  C   C29       1.0  0.52510  0.43360  0.60010  1.0000
  H   H40       1.0  0.57225  0.39382  0.64126  1.0000
  H   H41       1.0  0.96433  0.42821  0.64997  1.0000
  C   C30       1.0  0.96880  0.44510  0.43660  1.0000
  H   H42       1.0  0.90654  0.43988  0.48216  1.0000
  H   H43       1.0  0.97943  0.41304  0.37109  1.0000
  C   C31       1.0  0.53260  0.25970  0.53690  1.0000
  H   H44       1.0  0.53141  0.23346  0.47214  1.0000
  H   H45       1.0  0.97417  0.25407  0.59218  1.0000
  P   P6        1.0  0.87092  0.83087  0.40449  1.0000
  O   O30       1.0  0.82980  0.92690  0.47100  1.0000
  O   O31       1.0  0.79445  0.76500  0.43580  1.0000
  O   O32       1.0  0.90745  0.87200  0.28160  1.0000
  N   N6        1.0  0.96080  0.61970  0.49760  1.0000
  H   H46       1.0  0.89830  0.61582  0.54581  1.0000
  C   C32       1.0  0.97490  0.56640  0.39990  1.0000
  H   H47       1.0  0.92774  0.60618  0.35874  1.0000
  H   H48       1.0  0.53567  0.57179  0.35003  1.0000
  C   C33       1.0  0.53120  0.55490  0.56340  1.0000
  H   H49       1.0  0.59345  0.56012  0.51784  1.0000
  H   H50       1.0  0.52057  0.58696  0.62891  1.0000
  C   C34       1.0  0.96740  0.74030  0.46310  1.0000
  H   H51       1.0  0.96858  0.76654  0.52786  1.0000
  H   H52       1.0  0.52583  0.74593  0.40782  1.0000
  P   P7        1.0  0.92157  0.96648  0.68770  1.0000
  O   O33       1.0  0.86945  0.87190  0.72540  1.0000
  O   O34       1.0  0.87110  0.06610  0.61700  1.0000
  O   O35       1.0  0.52345  0.92960  0.63530  1.0000
  N   N7        1.0  0.83330  0.97940  0.90960  1.0000
  H   H53       1.0  0.83148  0.90241  0.91150  1.0000
  C   C35       1.0  0.74355  0.05240  0.88740  1.0000
  H   H54       1.0  0.73905  0.04923  0.81380  1.0000
  H   H55       1.0  0.74177  0.12899  0.88873  1.0000
  C   C36       1.0  0.83845  0.98640  0.02370  1.0000
  H   H56       1.0  0.83707  0.06272  0.02575  1.0000
  H   H57       1.0  0.89677  0.94006  0.03925  1.0000
  C   C37       1.0  0.91660  0.00710  0.81900  1.0000
  H   H58       1.0  0.97323  0.96855  0.84353  1.0000
  H   H59       1.0  0.91337  0.08654  0.80541  1.0000
  P   P8        1.0  0.57842  0.03352  0.31230  1.0000
  O   O36       1.0  0.63055  0.12810  0.27460  1.0000
  O   O37       1.0  0.62890  0.93390  0.38300  1.0000
  O   O38       1.0  0.97655  0.07040  0.36470  1.0000
  N   N8        1.0  0.66670  0.02060  0.09040  1.0000
  H   H60       1.0  0.66852  0.09759  0.08850  1.0000
  C   C38       1.0  0.75645  0.94760  0.11260  1.0000
  H   H61       1.0  0.76095  0.95077  0.18620  1.0000
  H   H62       1.0  0.75822  0.87101  0.11127  1.0000
  C   C39       1.0  0.66155  0.01360  0.97630  1.0000
  H   H63       1.0  0.66293  0.93728  0.97425  1.0000
  H   H64       1.0  0.60323  0.05994  0.96075  1.0000
  C   C40       1.0  0.58340  0.99290  0.18100  1.0000
  H   H65       1.0  0.52677  0.03145  0.15647  1.0000
  H   H66       1.0  0.58663  0.91346  0.19459  1.0000
  S   S3        1.0  0.78772  0.40046  0.31220  1.0000
  O   O39       1.0  0.84650  0.29630  0.35630  1.0000
  O   O40       1.0  0.69350  0.39070  0.32620  1.0000
  O   O41       1.0  0.79355  0.49380  0.35290  1.0000
  O   O42       1.0  0.95560  0.16130  0.98750  1.0000
  O   O43       1.0  0.50695  0.28190  0.83580  1.0000
  H   H67       1.0  0.53880  0.22489  0.81333  1.0000
  O   O44       1.0  0.83335  0.74930  0.97240  1.0000
  O   O45       1.0  0.91420  0.67480  0.82240  1.0000
  H   H68       1.0  0.90751  0.74018  0.79060  1.0000
  C   C41       1.0  0.83375  0.53370  0.10620  1.0000
  H   H69       1.0  0.80692  0.59354  0.14334  1.0000
  C   C42       1.0  0.87200  0.55210  0.99080  1.0000
  C   C43       1.0  0.91290  0.46280  0.93670  1.0000
  H   H70       1.0  0.93884  0.47528  0.85988  1.0000
  C   C44       1.0  0.91560  0.35440  0.99620  1.0000
  C   C45       1.0  0.87620  0.33560  0.11090  1.0000
  H   H71       1.0  0.87683  0.26313  0.15065  1.0000
  C   C46       1.0  0.83610  0.42460  0.16550  1.0000
  C   C47       1.0  0.87070  0.66920  0.92740  1.0000
  C   C48       1.0  0.95965  0.25590  0.94000  1.0000
  S   S4        1.0  0.71227  0.59954  0.68780  1.0000
  O   O46       1.0  0.65350  0.70370  0.64370  1.0000
  O   O47       1.0  0.80650  0.60930  0.67380  1.0000
  O   O48       1.0  0.70645  0.50620  0.64710  1.0000
  O   O49       1.0  0.54440  0.83870  0.01250  1.0000
  O   O50       1.0  0.99305  0.71810  0.16420  1.0000
  H   H72       1.0  0.96120  0.77511  0.18667  1.0000
  O   O51       1.0  0.66665  0.25070  0.02760  1.0000
  O   O52       1.0  0.58580  0.32520  0.17760  1.0000
  H   H73       1.0  0.59248  0.25982  0.20940  1.0000
  C   C49       1.0  0.66625  0.46630  0.89380  1.0000
  H   H74       1.0  0.69307  0.40646  0.85666  1.0000
  C   C50       1.0  0.62800  0.44790  0.00920  1.0000
  C   C51       1.0  0.58710  0.53720  0.06330  1.0000
  H   H75       1.0  0.56115  0.52472  0.14012  1.0000
  C   C52       1.0  0.58440  0.64560  0.00380  1.0000
  C   C53       1.0  0.62380  0.66440  0.88910  1.0000
  H   H76       1.0  0.62317  0.73687  0.84935  1.0000
  C   C54       1.0  0.66390  0.57540  0.83450  1.0000
  C   C55       1.0  0.62930  0.33080  0.07260  1.0000
  C   C56       1.0  0.54035  0.74410  0.06000  1.0000
  Tb  Tb3       1.0  0.82702  0.11575  0.45429  1.0000
  Tb  Tb4       1.0  0.67298  0.88425  0.54571  1.0000
