data_image0
_chemical_formula_structural       P2O6C2NC3P2O6C2NC3P2O6C2NC3P2O6C2NC3La2P2O6C2NC3P2O6C2NC3P2O6C2NC3P2O6C2NC3La2
_chemical_formula_sum              "P16 O48 C40 N8 La4"
_cell_length_a       13.3444
_cell_length_b       18.782
_cell_length_c       11.698
_cell_angle_alpha    90
_cell_angle_beta     97.711
_cell_angle_gamma    90

_space_group_name_H-M_alt    "P 1"
_space_group_IT_number       1

loop_
  _space_group_symop_operation_xyz
  'x, y, z'

loop_
  _atom_site_type_symbol
  _atom_site_label
  _atom_site_symmetry_multiplicity
  _atom_site_fract_x
  _atom_site_fract_y
  _atom_site_fract_z
  _atom_site_occupancy
  P   P1        1.0  0.43990  0.08530  0.07200  1.0000
  P   P2        1.0  0.73310  0.13360  0.43150  1.0000
  O   O1        1.0  0.42300  0.07430  0.44050  1.0000
  O   O2        1.0  0.46300  0.16360  0.10300  1.0000
  O   O3        1.0  0.52490  0.03660  0.12900  1.0000
  O   O4        1.0  0.84260  0.13800  0.40350  1.0000
  O   O5        1.0  0.66100  0.17580  0.34200  1.0000
  O   O6        1.0  0.72900  0.16130  0.05450  1.0000
  C   C1        1.0  0.32480  0.06240  0.13050  1.0000
  C   C2        1.0  0.69400  0.04170  0.42250  1.0000
  N   N1        1.0  0.26740  0.99270  0.12450  1.0000
  C   C3        1.0  0.16430  0.00550  0.15900  1.0000
  C   C4        1.0  0.15500  0.98130  0.27900  1.0000
  C   C5        1.0  0.04700  0.97850  0.30200  1.0000
  P   P3        1.0  0.54240  0.90450  0.39000  1.0000
  P   P4        1.0  0.28030  0.86510  0.05315  1.0000
  O   O7        1.0  0.56300  0.90910  0.02250  1.0000
  O   O8        1.0  0.50330  0.83040  0.35000  1.0000
  O   O9        1.0  0.46620  0.96240  0.34200  1.0000
  O   O10       1.0  0.17310  0.83260  0.04000  1.0000
  O   O11       1.0  0.33080  0.86280  0.17900  1.0000
  O   O12       1.0  0.34740  0.82840  0.47400  1.0000
  C   C6        1.0  0.65970  0.92070  0.33200  1.0000
  C   C7        1.0  0.26600  0.95710  0.00900  1.0000
  N   N2        1.0  0.71830  0.98970  0.33150  1.0000
  C   C8        1.0  0.82960  0.98170  0.32450  1.0000
  C   C9        1.0  0.86260  0.98080  0.20750  1.0000
  C   C10       1.0  0.96970  0.95870  0.20200  1.0000
  P   P5        1.0  0.56010  0.58530  0.42800  1.0000
  P   P6        1.0  0.26690  0.63360  0.06850  1.0000
  O   O13       1.0  0.57700  0.57430  0.05950  1.0000
  O   O14       1.0  0.53700  0.66360  0.39700  1.0000
  O   O15       1.0  0.47510  0.53660  0.37100  1.0000
  O   O16       1.0  0.15740  0.63800  0.09650  1.0000
  O   O17       1.0  0.33900  0.67580  0.15800  1.0000
  O   O18       1.0  0.27100  0.66130  0.44550  1.0000
  C   C11       1.0  0.67520  0.56240  0.36950  1.0000
  C   C12       1.0  0.30600  0.54170  0.07750  1.0000
  N   N3        1.0  0.73260  0.49270  0.37550  1.0000
  C   C13       1.0  0.83570  0.50550  0.34100  1.0000
  C   C14       1.0  0.84500  0.48130  0.22100  1.0000
  C   C15       1.0  0.95300  0.47850  0.19800  1.0000
  P   P7        1.0  0.45760  0.40450  0.11000  1.0000
  P   P8        1.0  0.71970  0.36510  0.44685  1.0000
  O   O19       1.0  0.43700  0.40910  0.47750  1.0000
  O   O20       1.0  0.49670  0.33040  0.15000  1.0000
  O   O21       1.0  0.53380  0.46240  0.15800  1.0000
  O   O22       1.0  0.82690  0.33260  0.46000  1.0000
  O   O23       1.0  0.66920  0.36280  0.32100  1.0000
  O   O24       1.0  0.65260  0.32840  0.02600  1.0000
  C   C16       1.0  0.34030  0.42070  0.16800  1.0000
  C   C17       1.0  0.73400  0.45710  0.49100  1.0000
  N   N4        1.0  0.28170  0.48970  0.16850  1.0000
  C   C18       1.0  0.17040  0.48170  0.17550  1.0000
  C   C19       1.0  0.13740  0.48080  0.29250  1.0000
  C   C20       1.0  0.03030  0.45870  0.29800  1.0000
  La  La1       1.0  0.62890  0.25000  0.16755  1.0000
  La  La2       1.0  0.37110  0.75000  0.33245  1.0000
  P   P9        1.0  0.43990  0.08530  0.57200  1.0000
  P   P10       1.0  0.73310  0.13360  0.93150  1.0000
  O   O25       1.0  0.42300  0.07430  0.94050  1.0000
  O   O26       1.0  0.46300  0.16360  0.60300  1.0000
  O   O27       1.0  0.52490  0.03660  0.62900  1.0000
  O   O28       1.0  0.84260  0.13800  0.90350  1.0000
  O   O29       1.0  0.66100  0.17580  0.84200  1.0000
  O   O30       1.0  0.72900  0.16130  0.55450  1.0000
  C   C21       1.0  0.32480  0.06240  0.63050  1.0000
  C   C22       1.0  0.69400  0.04170  0.92250  1.0000
  N   N5        1.0  0.26740  0.99270  0.62450  1.0000
  C   C23       1.0  0.16430  0.00550  0.65900  1.0000
  C   C24       1.0  0.15500  0.98130  0.77900  1.0000
  C   C25       1.0  0.04700  0.97850  0.80200  1.0000
  P   P11       1.0  0.54240  0.90450  0.89000  1.0000
  P   P12       1.0  0.28030  0.86510  0.55315  1.0000
  O   O31       1.0  0.56300  0.90910  0.52250  1.0000
  O   O32       1.0  0.50330  0.83040  0.85000  1.0000
  O   O33       1.0  0.46620  0.96240  0.84200  1.0000
  O   O34       1.0  0.17310  0.83260  0.54000  1.0000
  O   O35       1.0  0.33080  0.86280  0.67900  1.0000
  O   O36       1.0  0.34740  0.82840  0.97400  1.0000
  C   C26       1.0  0.65970  0.92070  0.83200  1.0000
  C   C27       1.0  0.26600  0.95710  0.50900  1.0000
  N   N6        1.0  0.71830  0.98970  0.83150  1.0000
  C   C28       1.0  0.82960  0.98170  0.82450  1.0000
  C   C29       1.0  0.86260  0.98080  0.70750  1.0000
  C   C30       1.0  0.96970  0.95870  0.70200  1.0000
  P   P13       1.0  0.56010  0.58530  0.92800  1.0000
  P   P14       1.0  0.26690  0.63360  0.56850  1.0000
  O   O37       1.0  0.57700  0.57430  0.55950  1.0000
  O   O38       1.0  0.53700  0.66360  0.89700  1.0000
  O   O39       1.0  0.47510  0.53660  0.87100  1.0000
  O   O40       1.0  0.15740  0.63800  0.59650  1.0000
  O   O41       1.0  0.33900  0.67580  0.65800  1.0000
  O   O42       1.0  0.27100  0.66130  0.94550  1.0000
  C   C31       1.0  0.67520  0.56240  0.86950  1.0000
  C   C32       1.0  0.30600  0.54170  0.57750  1.0000
  N   N7        1.0  0.73260  0.49270  0.87550  1.0000
  C   C33       1.0  0.83570  0.50550  0.84100  1.0000
  C   C34       1.0  0.84500  0.48130  0.72100  1.0000
  C   C35       1.0  0.95300  0.47850  0.69800  1.0000
  P   P15       1.0  0.45760  0.40450  0.61000  1.0000
  P   P16       1.0  0.71970  0.36510  0.94685  1.0000
  O   O43       1.0  0.43700  0.40910  0.97750  1.0000
  O   O44       1.0  0.49670  0.33040  0.65000  1.0000
  O   O45       1.0  0.53380  0.46240  0.65800  1.0000
  O   O46       1.0  0.82690  0.33260  0.96000  1.0000
  O   O47       1.0  0.66920  0.36280  0.82100  1.0000
  O   O48       1.0  0.65260  0.32840  0.52600  1.0000
  C   C36       1.0  0.34030  0.42070  0.66800  1.0000
  C   C37       1.0  0.73400  0.45710  0.99100  1.0000
  N   N8        1.0  0.28170  0.48970  0.66850  1.0000
  C   C38       1.0  0.17040  0.48170  0.67550  1.0000
  C   C39       1.0  0.13740  0.48080  0.79250  1.0000
  C   C40       1.0  0.03030  0.45870  0.79800  1.0000
  La  La3       1.0  0.62890  0.25000  0.66755  1.0000
  La  La4       1.0  0.37110  0.75000  0.83245  1.0000
