data_image0
_chemical_formula_structural       O4HC3HC2H3CHC3H3C2HC2N2O2CNC4NC2HC2HCHC2H3CH3OHO5HC3HC2H3CHC3H3C2HC2N2O2CNC4NC2HC2HCHC2H3CH3OHOCHC2H3CHC3H3C2HC2N2O4HC2O2CNC4NC2HC2HCHC2H3CH3OHO5HC3HC2H3CHC3H3C2HC2N2O2CNC4NC2HC2HCHC2H3CH3OHOCd4
_chemical_formula_sum              "O32 H80 C104 N16 Cd4"
_cell_length_a       8.3252
_cell_length_b       9.3565
_cell_length_c       32.486
_cell_angle_alpha    90
_cell_angle_beta     90
_cell_angle_gamma    90

_space_group_name_H-M_alt    "P 1"
_space_group_IT_number       1

loop_
  _space_group_symop_operation_xyz
  'x, y, z'

loop_
  _atom_site_type_symbol
  _atom_site_label
  _atom_site_symmetry_multiplicity
  _atom_site_fract_x
  _atom_site_fract_y
  _atom_site_fract_z
  _atom_site_occupancy
  O   O1        1.0  0.22870  0.19240  0.98215  1.0000
  O   O2        1.0  0.90240  0.17810  0.13866  1.0000
  O   O3        1.0  0.88140  0.07840  0.07673  1.0000
  O   O4        1.0  0.01540  0.08760  0.00922  1.0000
  H   H1        1.0  0.95990  0.09760  0.02990  1.0000
  C   C1        1.0  0.38620  0.51380  0.10895  1.0000
  C   C2        1.0  0.94370  0.16610  0.10100  1.0000
  C   C3        1.0  0.45790  0.69650  0.15760  1.0000
  H   H2        1.0  0.42930  0.75420  0.17970  1.0000
  C   C4        1.0  0.07620  0.25870  0.08656  1.0000
  C   C5        1.0  0.82260  0.62210  0.09030  1.0000
  H   H3        1.0  0.83400  0.54740  0.07030  1.0000
  H   H4        1.0  0.90090  0.60940  0.11170  1.0000
  H   H5        1.0  0.83870  0.71310  0.07730  1.0000
  C   C6        1.0  0.54050  0.52280  0.09293  1.0000
  H   H6        1.0  0.56850  0.46450  0.07090  1.0000
  C   C7        1.0  0.26920  0.41270  0.09246  1.0000
  C   C8        1.0  0.61240  0.70660  0.14171  1.0000
  C   C9        1.0  0.73350  0.80960  0.15940  1.0000
  H   H7        1.0  0.77890  0.86610  0.13770  1.0000
  H   H8        1.0  0.81730  0.75700  0.17300  1.0000
  H   H9        1.0  0.68140  0.87120  0.17890  1.0000
  C   C10       1.0  0.13720  0.17730  0.01057  1.0000
  C   C11       1.0  0.34570  0.60320  0.14156  1.0000
  H   H10       1.0  0.24260  0.60010  0.15260  1.0000
  C   C12       1.0  0.15670  0.25900  0.04971  1.0000
  C   C13       1.0  0.65420  0.61630  0.10890  1.0000
  N   N1        1.0  0.14710  0.35580  0.11254  1.0000
  N   N2        1.0  0.27920  0.35620  0.05365  1.0000
  O   O5        1.0  0.85610  0.44010  0.19125  1.0000
  O   O6        1.0  0.69910  0.53840  0.23887  1.0000
  C   C14       1.0  0.72720  0.44960  0.20986  1.0000
  N   N3        1.0  0.60090  0.25190  0.16773  1.0000
  C   C15       1.0  0.58990  0.35940  0.19714  1.0000
  C   C16       1.0  0.43060  0.36370  0.20816  1.0000
  C   C17       1.0  0.33680  0.46400  0.23397  1.0000
  C   C18       1.0  0.45090  0.19720  0.16219  1.0000
  N   N4        1.0  0.34680  0.26320  0.18649  1.0000
  C   C19       1.0  0.40580  0.08750  0.13217  1.0000
  C   C20       1.0  0.49440  0.06860  0.09617  1.0000
  H   H11       1.0  0.58840  0.12040  0.09210  1.0000
  C   C21       1.0  0.44290  0.97300  0.06632  1.0000
  C   C22       1.0  0.26800  0.00900  0.13863  1.0000
  H   H12       1.0  0.20940  0.02000  0.16280  1.0000
  C   C23       1.0  0.21770  0.91290  0.10854  1.0000
  H   H13       1.0  0.12480  0.85990  0.11290  1.0000
  C   C24       1.0  0.30300  0.89460  0.07230  1.0000
  C   C25       1.0  0.54010  0.95510  0.02770  1.0000
  H   H14       1.0  0.63310  0.01560  0.02890  1.0000
  H   H15       1.0  0.47580  0.98100  0.00430  1.0000
  H   H16       1.0  0.57330  0.85720  0.02510  1.0000
  C   C26       1.0  0.24000  0.79350  0.04022  1.0000
  H   H17       1.0  0.14600  0.74620  0.05050  1.0000
  H   H18       1.0  0.32090  0.72380  0.03380  1.0000
  H   H19       1.0  0.21300  0.84600  0.01580  1.0000
  O   O7        1.0  0.41430  0.55480  0.25655  1.0000
  H   H20       1.0  0.51110  0.54330  0.25340  1.0000
  O   O8        1.0  0.18930  0.46330  0.23207  1.0000
  O   O9        1.0  0.27130  0.80760  0.48215  1.0000
  O   O10       1.0  0.59760  0.82190  0.63866  1.0000
  O   O11       1.0  0.61860  0.92160  0.57673  1.0000
  O   O12       1.0  0.48460  0.91240  0.50922  1.0000
  H   H21       1.0  0.54010  0.90240  0.52990  1.0000
  C   C27       1.0  0.11380  0.48620  0.60895  1.0000
  C   C28       1.0  0.55630  0.83390  0.60100  1.0000
  C   C29       1.0  0.04210  0.30350  0.65760  1.0000
  H   H22       1.0  0.07070  0.24580  0.67970  1.0000
  C   C30       1.0  0.42380  0.74130  0.58656  1.0000
  C   C31       1.0  0.67740  0.37790  0.59030  1.0000
  H   H23       1.0  0.66600  0.45260  0.57030  1.0000
  H   H24       1.0  0.59910  0.39060  0.61170  1.0000
  H   H25       1.0  0.66130  0.28690  0.57730  1.0000
  C   C32       1.0  0.95950  0.47720  0.59293  1.0000
  H   H26       1.0  0.93150  0.53550  0.57090  1.0000
  C   C33       1.0  0.23080  0.58730  0.59246  1.0000
  C   C34       1.0  0.88760  0.29340  0.64171  1.0000
  C   C35       1.0  0.76650  0.19040  0.65940  1.0000
  H   H27       1.0  0.72110  0.13390  0.63770  1.0000
  H   H28       1.0  0.68270  0.24300  0.67300  1.0000
  H   H29       1.0  0.81860  0.12880  0.67890  1.0000
  C   C36       1.0  0.36280  0.82270  0.51057  1.0000
  C   C37       1.0  0.15430  0.39680  0.64156  1.0000
  H   H30       1.0  0.25740  0.39990  0.65260  1.0000
  C   C38       1.0  0.34330  0.74100  0.54971  1.0000
  C   C39       1.0  0.84580  0.38370  0.60890  1.0000
  N   N5        1.0  0.35290  0.64420  0.61254  1.0000
  N   N6        1.0  0.22080  0.64380  0.55365  1.0000
  O   O13       1.0  0.64390  0.55990  0.69125  1.0000
  O   O14       1.0  0.80090  0.46160  0.73887  1.0000
  C   C40       1.0  0.77280  0.55040  0.70986  1.0000
  N   N7        1.0  0.89910  0.74810  0.66773  1.0000
  C   C41       1.0  0.91010  0.64060  0.69714  1.0000
  C   C42       1.0  0.06940  0.63630  0.70816  1.0000
  C   C43       1.0  0.16320  0.53600  0.73397  1.0000
  C   C44       1.0  0.04910  0.80280  0.66219  1.0000
  N   N8        1.0  0.15320  0.73680  0.68649  1.0000
  C   C45       1.0  0.09420  0.91250  0.63217  1.0000
  C   C46       1.0  0.00560  0.93140  0.59617  1.0000
  H   H31       1.0  0.91160  0.87960  0.59210  1.0000
  C   C47       1.0  0.05710  0.02700  0.56632  1.0000
  C   C48       1.0  0.23200  0.99100  0.63863  1.0000
  H   H32       1.0  0.29060  0.98000  0.66280  1.0000
  C   C49       1.0  0.28230  0.08710  0.60854  1.0000
  H   H33       1.0  0.37520  0.14010  0.61290  1.0000
  C   C50       1.0  0.19700  0.10540  0.57230  1.0000
  C   C51       1.0  0.95990  0.04490  0.52770  1.0000
  H   H34       1.0  0.86690  0.98440  0.52890  1.0000
  H   H35       1.0  0.02420  0.01900  0.50430  1.0000
  H   H36       1.0  0.92670  0.14280  0.52510  1.0000
  C   C52       1.0  0.26000  0.20650  0.54022  1.0000
  H   H37       1.0  0.35400  0.25380  0.55050  1.0000
  H   H38       1.0  0.17910  0.27620  0.53380  1.0000
  H   H39       1.0  0.28700  0.15400  0.51580  1.0000
  O   O15       1.0  0.08570  0.44520  0.75655  1.0000
  H   H40       1.0  0.98890  0.45670  0.75340  1.0000
  O   O16       1.0  0.31070  0.53670  0.73207  1.0000
  C   C53       1.0  0.54210  0.19650  0.34240  1.0000
  H   H41       1.0  0.57070  0.25420  0.32030  1.0000
  C   C54       1.0  0.92380  0.75870  0.41344  1.0000
  C   C55       1.0  0.17740  0.12210  0.40970  1.0000
  H   H42       1.0  0.16600  0.04740  0.42970  1.0000
  H   H43       1.0  0.09910  0.10940  0.38830  1.0000
  H   H44       1.0  0.16130  0.21310  0.42270  1.0000
  C   C56       1.0  0.45950  0.02280  0.40707  1.0000
  H   H45       1.0  0.43150  0.96450  0.42910  1.0000
  C   C57       1.0  0.73080  0.91270  0.40754  1.0000
  C   C58       1.0  0.38760  0.20660  0.35829  1.0000
  C   C59       1.0  0.26650  0.30960  0.34060  1.0000
  H   H46       1.0  0.22110  0.36610  0.36230  1.0000
  H   H47       1.0  0.18270  0.25700  0.32700  1.0000
  H   H48       1.0  0.31860  0.37120  0.32110  1.0000
  C   C60       1.0  0.86280  0.67730  0.48943  1.0000
  C   C61       1.0  0.65430  0.10320  0.35844  1.0000
  H   H49       1.0  0.75740  0.10010  0.34740  1.0000
  C   C62       1.0  0.84330  0.75900  0.45029  1.0000
  C   C63       1.0  0.34580  0.11630  0.39110  1.0000
  N   N9        1.0  0.85290  0.85580  0.38746  1.0000
  N   N10       1.0  0.72080  0.85620  0.44635  1.0000
  O   O17       1.0  0.77130  0.69240  0.51785  1.0000
  O   O18       1.0  0.09760  0.67810  0.36134  1.0000
  O   O19       1.0  0.11860  0.57840  0.42327  1.0000
  O   O20       1.0  0.98460  0.58760  0.49078  1.0000
  H   H50       1.0  0.04010  0.59760  0.47010  1.0000
  C   C64       1.0  0.61380  0.01380  0.39105  1.0000
  C   C65       1.0  0.05630  0.66610  0.39900  1.0000
  O   O21       1.0  0.14390  0.94010  0.30875  1.0000
  O   O22       1.0  0.30090  0.03840  0.26113  1.0000
  C   C66       1.0  0.27280  0.94960  0.29014  1.0000
  N   N11       1.0  0.39910  0.75190  0.33227  1.0000
  C   C67       1.0  0.41010  0.85940  0.30286  1.0000
  C   C68       1.0  0.56940  0.86370  0.29184  1.0000
  C   C69       1.0  0.66320  0.96400  0.26603  1.0000
  C   C70       1.0  0.54910  0.69720  0.33781  1.0000
  N   N12       1.0  0.65320  0.76320  0.31351  1.0000
  C   C71       1.0  0.59420  0.58750  0.36783  1.0000
  C   C72       1.0  0.50560  0.56860  0.40383  1.0000
  H   H51       1.0  0.41160  0.62040  0.40790  1.0000
  C   C73       1.0  0.55710  0.47300  0.43368  1.0000
  C   C74       1.0  0.73200  0.50900  0.36137  1.0000
  H   H52       1.0  0.79060  0.52000  0.33720  1.0000
  C   C75       1.0  0.78230  0.41290  0.39146  1.0000
  H   H53       1.0  0.87520  0.35990  0.38710  1.0000
  C   C76       1.0  0.69700  0.39460  0.42770  1.0000
  C   C77       1.0  0.45990  0.45510  0.47230  1.0000
  H   H54       1.0  0.36690  0.51560  0.47110  1.0000
  H   H55       1.0  0.52420  0.48100  0.49570  1.0000
  H   H56       1.0  0.42670  0.35720  0.47490  1.0000
  C   C78       1.0  0.76000  0.29350  0.45978  1.0000
  H   H57       1.0  0.85400  0.24620  0.44950  1.0000
  H   H58       1.0  0.67910  0.22380  0.46620  1.0000
  H   H59       1.0  0.78700  0.34600  0.48420  1.0000
  O   O23       1.0  0.58570  0.05480  0.24345  1.0000
  H   H60       1.0  0.48890  0.04330  0.24660  1.0000
  O   O24       1.0  0.81070  0.96330  0.26793  1.0000
  O   O25       1.0  0.72870  0.30760  0.01785  1.0000
  O   O26       1.0  0.40240  0.32190  0.86134  1.0000
  O   O27       1.0  0.38140  0.42160  0.92327  1.0000
  O   O28       1.0  0.51540  0.41240  0.99078  1.0000
  H   H61       1.0  0.45990  0.40240  0.97010  1.0000
  C   C79       1.0  0.88620  0.98620  0.89105  1.0000
  C   C80       1.0  0.44370  0.33390  0.89900  1.0000
  C   C81       1.0  0.95790  0.80350  0.84240  1.0000
  H   H62       1.0  0.92930  0.74580  0.82030  1.0000
  C   C82       1.0  0.57620  0.24130  0.91344  1.0000
  C   C83       1.0  0.32260  0.87790  0.90970  1.0000
  H   H63       1.0  0.33400  0.95260  0.92970  1.0000
  H   H64       1.0  0.40090  0.89060  0.88830  1.0000
  H   H65       1.0  0.33870  0.78690  0.92270  1.0000
  C   C84       1.0  0.04050  0.97720  0.90707  1.0000
  H   H66       1.0  0.06850  0.03550  0.92910  1.0000
  C   C85       1.0  0.76920  0.08730  0.90754  1.0000
  C   C86       1.0  0.11240  0.79340  0.85829  1.0000
  C   C87       1.0  0.23350  0.69040  0.84060  1.0000
  H   H67       1.0  0.27890  0.63390  0.86230  1.0000
  H   H68       1.0  0.31730  0.74300  0.82700  1.0000
  H   H69       1.0  0.18140  0.62880  0.82110  1.0000
  C   C88       1.0  0.63720  0.32270  0.98943  1.0000
  C   C89       1.0  0.84570  0.89680  0.85844  1.0000
  H   H70       1.0  0.74260  0.89990  0.84740  1.0000
  C   C90       1.0  0.65670  0.24100  0.95029  1.0000
  C   C91       1.0  0.15420  0.88370  0.89110  1.0000
  N   N13       1.0  0.64710  0.14420  0.88746  1.0000
  N   N14       1.0  0.77920  0.14380  0.94635  1.0000
  O   O29       1.0  0.35610  0.05990  0.80875  1.0000
  O   O30       1.0  0.19910  0.96160  0.76113  1.0000
  C   C92       1.0  0.22720  0.05040  0.79014  1.0000
  N   N15       1.0  0.10090  0.24810  0.83227  1.0000
  C   C93       1.0  0.08990  0.14060  0.80286  1.0000
  C   C94       1.0  0.93060  0.13630  0.79184  1.0000
  C   C95       1.0  0.83680  0.03600  0.76603  1.0000
  C   C96       1.0  0.95090  0.30280  0.83781  1.0000
  N   N16       1.0  0.84680  0.23680  0.81351  1.0000
  C   C97       1.0  0.90580  0.41250  0.86783  1.0000
  C   C98       1.0  0.99440  0.43140  0.90383  1.0000
  H   H71       1.0  0.08840  0.37960  0.90790  1.0000
  C   C99       1.0  0.94290  0.52700  0.93368  1.0000
  C   C100      1.0  0.76800  0.49100  0.86137  1.0000
  H   H72       1.0  0.70940  0.48000  0.83720  1.0000
  C   C101      1.0  0.71770  0.58710  0.89146  1.0000
  H   H73       1.0  0.62480  0.64010  0.88710  1.0000
  C   C102      1.0  0.80300  0.60540  0.92770  1.0000
  C   C103      1.0  0.04010  0.54490  0.97230  1.0000
  H   H74       1.0  0.13310  0.48440  0.97110  1.0000
  H   H75       1.0  0.97580  0.51900  0.99570  1.0000
  H   H76       1.0  0.07330  0.64280  0.97490  1.0000
  C   C104      1.0  0.74000  0.70650  0.95978  1.0000
  H   H77       1.0  0.64600  0.75380  0.94950  1.0000
  H   H78       1.0  0.82090  0.77620  0.96620  1.0000
  H   H79       1.0  0.71300  0.65400  0.98420  1.0000
  O   O31       1.0  0.91430  0.94520  0.74345  1.0000
  H   H80       1.0  0.01110  0.95670  0.74660  1.0000
  O   O32       1.0  0.68930  0.03670  0.76793  1.0000
  Cd  Cd1       1.0  0.07493  0.30795  0.18062  1.0000
  Cd  Cd2       1.0  0.57493  0.19205  0.81938  1.0000
  Cd  Cd3       1.0  0.92507  0.80795  0.31938  1.0000
  Cd  Cd4       1.0  0.42507  0.69205  0.68062  1.0000
