data_image0
_chemical_formula_structural       COC3HC3O5CHO3CHCOC3HC3O2HO3C3OCOCHC3O2C2HC5OHOCO3HO4C3HC5O7C3HC3HC2OCHC7HO9CHC7HO3COCO3C4HCHO2CNCSCSN2CSNCSNCSNCSNCSNCSNCSZn18COC3HC3O5CHO3CHCOC3HC3O2HO3C3OCOCHC3O2C2HC5OHOCO3HO4C3HC5O7C3HC3HC2OCHC7HO9CHC7HO3COCO3C4HCHO2CNCSCSN2CSNCSNCSNCSNCSNCSNCSZn18
_chemical_formula_sum              "C162 O108 H36 N18 S18 Zn36"
_cell_length_a       25.87
_cell_length_b       25.87
_cell_length_c       13.256
_cell_angle_alpha    90
_cell_angle_beta     90
_cell_angle_gamma    120

_space_group_name_H-M_alt    "P 1"
_space_group_IT_number       1

loop_
  _space_group_symop_operation_xyz
  'x, y, z'

loop_
  _atom_site_type_symbol
  _atom_site_label
  _atom_site_symmetry_multiplicity
  _atom_site_fract_x
  _atom_site_fract_y
  _atom_site_fract_z
  _atom_site_occupancy
  C   C1        1.0  0.97799  0.44986  0.03148  1.0000
  O   O1        1.0  0.92842  0.56008  0.01792  1.0000
  C   C2        1.0  0.98443  0.41261  0.11120  1.0000
  C   C3        1.0  0.99664  0.44968  0.43046  1.0000
  C   C4        1.0  0.95531  0.48717  0.05688  1.0000
  H   H1        1.0  0.93833  0.48521  0.13297  1.0000
  C   C5        1.0  0.98325  0.53528  0.39357  1.0000
  C   C6        1.0  0.95560  0.52916  0.48946  1.0000
  C   C7        1.0  0.99962  0.58575  0.32471  1.0000
  O   O2        1.0  0.02025  0.58439  0.23805  1.0000
  O   O3        1.0  0.99425  0.63048  0.35477  1.0000
  O   O4        1.0  0.00876  0.40823  0.39431  1.0000
  O   O5        1.0  0.94682  0.39269  0.18194  1.0000
  O   O6        1.0  0.03009  0.40472  0.10524  1.0000
  C   C8        1.0  0.00110  0.49424  0.36569  1.0000
  H   H2        1.0  0.02008  0.49761  0.29111  1.0000
  O   O7        1.0  0.69910  0.74242  0.08804  1.0000
  O   O8        1.0  0.62638  0.72738  0.38543  1.0000
  O   O9        1.0  0.68381  0.70621  0.29065  1.0000
  C   C9        1.0  0.68067  0.82140  0.05815  1.0000
  H   H3        1.0  0.69817  0.82406  0.48246  1.0000
  C   C10       1.0  0.65528  0.77423  0.22239  1.0000
  O   O10       1.0  0.62380  0.89789  0.22398  1.0000
  C   C11       1.0  0.67858  0.77768  0.12308  1.0000
  C   C12       1.0  0.65439  0.73307  0.30155  1.0000
  C   C13       1.0  0.63635  0.81457  0.24932  1.0000
  H   H4        1.0  0.61959  0.81252  0.32546  1.0000
  C   C14       1.0  0.66228  0.86205  0.08539  1.0000
  C   C15       1.0  0.64003  0.85941  0.18537  1.0000
  C   C16       1.0  0.66782  0.90572  0.00809  1.0000
  O   O11       1.0  0.69538  0.91104  0.42525  1.0000
  O   O12       1.0  0.64338  0.93779  0.02510  1.0000
  H   H5        1.0  0.35105  0.17793  0.16030  1.0000
  O   O13       1.0  0.35167  0.09382  0.25672  1.0000
  O   O14       1.0  0.28613  0.07727  0.05606  1.0000
  O   O15       1.0  0.34757  0.05986  0.45995  1.0000
  C   C17       1.0  0.33862  0.17690  0.23903  1.0000
  C   C18       1.0  0.31771  0.08652  0.47813  1.0000
  C   C19       1.0  0.32189  0.13149  0.40368  1.0000
  O   O16       1.0  0.28541  0.25245  0.41321  1.0000
  C   C20       1.0  0.33924  0.13324  0.30101  1.0000
  O   O17       1.0  0.34692  0.26824  0.11938  1.0000
  C   C21       1.0  0.30488  0.17220  0.43733  1.0000
  H   H6        1.0  0.29074  0.16945  0.01547  1.0000
  C   C22       1.0  0.31936  0.21572  0.27204  1.0000
  C   C23       1.0  0.30370  0.21484  0.37464  1.0000
  C   C24       1.0  0.31226  0.25333  0.19487  1.0000
  O   O18       1.0  0.27054  0.26665  0.20427  1.0000
  O   O19       1.0  0.41716  0.43849  0.24021  1.0000
  C   C25       1.0  0.55201  0.52975  0.03324  1.0000
  C   C26       1.0  0.51362  0.47019  0.05946  1.0000
  H   H7        1.0  0.51584  0.45541  0.13557  1.0000
  C   C27       1.0  0.46543  0.44991  0.39629  1.0000
  C   C28       1.0  0.47102  0.42846  0.49263  1.0000
  C   C29       1.0  0.41568  0.41576  0.32623  1.0000
  C   C30       1.0  0.58957  0.57379  0.11251  1.0000
  C   C31       1.0  0.55230  0.54850  0.43207  1.0000
  O   O20       1.0  0.37159  0.36468  0.35443  1.0000
  H   H8        1.0  0.50376  0.52393  0.29318  1.0000
  O   O21       1.0  0.59434  0.60175  0.39526  1.0000
  C   C32       1.0  0.50712  0.50859  0.36805  1.0000
  O   O22       1.0  0.61042  0.55679  0.18281  1.0000
  O   O23       1.0  0.59631  0.62679  0.10542  1.0000
  O   O24       1.0  0.43984  0.37075  0.02224  1.0000
  H   H9        1.0  0.17352  0.86404  0.49030  1.0000
  O   O25       1.0  0.25314  0.95100  0.09151  1.0000
  O   O26       1.0  0.27410  0.89891  0.39199  1.0000
  O   O27       1.0  0.29263  0.97602  0.29481  1.0000
  O   O28       1.0  0.10897  0.72097  0.23997  1.0000
  C   C33       1.0  0.17825  0.85079  0.06614  1.0000
  C   C34       1.0  0.22757  0.87800  0.22894  1.0000
  C   C35       1.0  0.19021  0.81851  0.25847  1.0000
  H   H10       1.0  0.19398  0.80549  0.33509  1.0000
  C   C36       1.0  0.13989  0.79143  0.09660  1.0000
  C   C37       1.0  0.14580  0.77534  0.19719  1.0000
  C   C38       1.0  0.09426  0.75084  0.02328  1.0000
  C   C39       1.0  0.22133  0.89543  0.12885  1.0000
  C   C40       1.0  0.26757  0.92004  0.30731  1.0000
  O   O29       1.0  0.09039  0.77239  0.43909  1.0000
  O   O30       1.0  0.05926  0.69440  0.04451  1.0000
  O   O31       1.0  0.73662  0.09013  0.10485  1.0000
  O   O32       1.0  0.90955  0.26255  0.24883  1.0000
  O   O33       1.0  0.92626  0.21193  0.04791  1.0000
  O   O34       1.0  0.94245  0.29126  0.45414  1.0000
  O   O35       1.0  0.75301  0.03644  0.40184  1.0000
  C   C41       1.0  0.82450  0.16825  0.23192  1.0000
  C   C42       1.0  0.87199  0.19442  0.39523  1.0000
  C   C43       1.0  0.83183  0.13603  0.42652  1.0000
  H   H11       1.0  0.83567  0.12360  0.00353  1.0000
  C   C44       1.0  0.78516  0.10976  0.26278  1.0000
  C   C45       1.0  0.78842  0.09302  0.36361  1.0000
  C   C46       1.0  0.74677  0.06770  0.18335  1.0000
  H   H12       1.0  0.82293  0.18075  0.15404  1.0000
  C   C47       1.0  0.91664  0.23465  0.47077  1.0000
  C   C48       1.0  0.86949  0.21108  0.29353  1.0000
  O   O36       1.0  0.72776  0.01160  0.19042  1.0000
  C   C49       1.0  0.52194  0.02571  0.08285  1.0000
  H   H13       1.0  0.53308  0.03562  0.16249  1.0000
  C   C50       1.0  0.46730  0.01682  0.04775  1.0000
  C   C51       1.0  0.54607  0.00234  0.41889  1.0000
  C   C52       1.0  0.56147  0.01670  0.02257  1.0000
  C   C53       1.0  0.58095  0.98811  0.34658  1.0000
  C   C54       1.0  0.49210  0.99623  0.38312  1.0000
  C   C55       1.0  0.45162  0.00271  0.44433  1.0000
  C   C56       1.0  0.42399  0.01570  0.12328  1.0000
  H   H14       1.0  0.47972  0.98345  0.30479  1.0000
  O   O37       1.0  0.36921  0.97296  0.11557  1.0000
  O   O38       1.0  0.40069  0.99584  0.40443  1.0000
  O   O39       1.0  0.44339  0.05403  0.19295  1.0000
  O   O40       1.0  0.60816  0.01723  0.06959  1.0000
  O   O41       1.0  0.55450  0.95732  0.27010  1.0000
  O   O42       1.0  0.63798  0.00875  0.36208  1.0000
  O   O43       1.0  0.28052  0.38885  0.23920  1.0000
  O   O44       1.0  0.23043  0.32055  0.43795  1.0000
  O   O45       1.0  0.30795  0.36685  0.04445  1.0000
  C   C57       1.0  0.18333  0.37373  0.25637  1.0000
  H   H15       1.0  0.19574  0.38985  0.33348  1.0000
  C   C58       1.0  0.21085  0.35112  0.09470  1.0000
  C   C59       1.0  0.22656  0.37223  0.19578  1.0000
  C   C60       1.0  0.12446  0.35295  0.22500  1.0000
  C   C61       1.0  0.15197  0.33128  0.06264  1.0000
  C   C62       1.0  0.25173  0.34595  0.02218  1.0000
  C   C63       1.0  0.10734  0.33018  0.12450  1.0000
  C   C64       1.0  0.08208  0.35106  0.30212  1.0000
  H   H16       1.0  0.13940  0.31401  0.48625  1.0000
  O   O46       1.0  0.05173  0.30707  0.08705  1.0000
  O   O47       1.0  0.10286  0.37829  0.38732  1.0000
  O   O48       1.0  0.02623  0.32040  0.28851  1.0000
  C   C65       1.0  0.94167  0.68763  0.19486  1.0000
  O   O49       1.0  0.74195  0.64529  0.25459  1.0000
  C   C66       1.0  0.76749  0.67848  0.47688  1.0000
  O   O50       1.0  0.96719  0.71550  0.41392  1.0000
  O   O51       1.0  0.92228  0.65316  0.11910  1.0000
  O   O52       1.0  0.99639  0.72992  0.20436  1.0000
  C   C67       1.0  0.86647  0.69317  0.43666  1.0000
  C   C68       1.0  0.89659  0.67926  0.27220  1.0000
  C   C69       1.0  0.80843  0.67453  0.40273  1.0000
  C   C70       1.0  0.91107  0.69563  0.37468  1.0000
  H   H17       1.0  0.87718  0.70770  0.01475  1.0000
  C   C71       1.0  0.83821  0.65835  0.23888  1.0000
  H   H18       1.0  0.82745  0.64607  0.15994  1.0000
  O   O53       1.0  0.79032  0.70954  0.05518  1.0000
  O   O54       1.0  0.71110  0.64945  0.45797  1.0000
  C   C72       1.0  0.79336  0.65727  0.29993  1.0000
  N   N1        1.0  0.37617  0.50377  0.07379  1.0000
  C   C73       1.0  0.38479  0.52755  0.49373  1.0000
  S   S1        1.0  0.39775  0.56245  0.38653  1.0000
  C   C74       1.0  0.46702  0.85063  0.01537  1.0000
  S   S2        1.0  0.41186  0.81562  0.43587  1.0000
  N   N2        1.0  0.50701  0.87438  0.07344  1.0000
  N   N3        1.0  0.12488  0.62388  0.07129  1.0000
  C   C75       1.0  0.14087  0.61338  0.49374  1.0000
  S   S3        1.0  0.16416  0.59812  0.39005  1.0000
  N   N4        1.0  0.65824  0.52184  0.37451  1.0000
  C   C76       1.0  0.66003  0.48808  0.43249  1.0000
  S   S4        1.0  0.66304  0.44052  0.01172  1.0000
  N   N5        1.0  0.97833  0.18564  0.24374  1.0000
  C   C77       1.0  0.97772  0.15104  0.30274  1.0000
  S   S5        1.0  0.97866  0.10335  0.38352  1.0000
  N   N6        1.0  0.47591  0.13862  0.38299  1.0000
  C   C78       1.0  0.50686  0.17255  0.44536  1.0000
  S   S6        1.0  0.55038  0.22117  0.03140  1.0000
  N   N7        1.0  0.81792  0.79087  0.24994  1.0000
  C   C79       1.0  0.85222  0.82398  0.31025  1.0000
  S   S7        1.0  0.89931  0.87115  0.39343  1.0000
  N   N8        1.0  0.86436  0.34148  0.36996  1.0000
  C   C80       1.0  0.82107  0.33774  0.40650  1.0000
  S   S8        1.0  0.76104  0.33531  0.45560  1.0000
  N   N9        1.0  0.20615  0.02315  0.24969  1.0000
  C   C81       1.0  0.17232  0.02601  0.30628  1.0000
  S   S9        1.0  0.12381  0.02806  0.38382  1.0000
  Zn  Zn1       1.0  0.96861  0.64888  0.00241  1.0000
  Zn  Zn2       1.0  0.27599  0.02478  0.18157  1.0000
  Zn  Zn3       1.0  0.35275  0.43375  0.15546  1.0000
  Zn  Zn4       1.0  0.58100  0.93252  0.14147  1.0000
  Zn  Zn5       1.0  0.93827  0.34346  0.31123  1.0000
  Zn  Zn6       1.0  0.04000  0.71969  0.32214  1.0000
  Zn  Zn7       1.0  0.28270  0.32187  0.32120  1.0000
  Zn  Zn8       1.0  0.02809  0.35127  0.48070  1.0000
  Zn  Zn9       1.0  0.32187  0.97394  0.48516  1.0000
  Zn  Zn10      1.0  0.35173  0.31993  0.00301  1.0000
  Zn  Zn11      1.0  0.75017  0.72147  0.18027  1.0000
  Zn  Zn12      1.0  0.97756  0.25415  0.17514  1.0000
  Zn  Zn13      1.0  0.08066  0.64923  0.15484  1.0000
  Zn  Zn14      1.0  0.40434  0.06546  0.32081  1.0000
  Zn  Zn15      1.0  0.65937  0.59443  0.31364  1.0000
  Zn  Zn16      1.0  0.68323  0.96376  0.31689  1.0000
  Zn  Zn17      1.0  0.65253  0.67777  0.48063  1.0000
  Zn  Zn18      1.0  0.68419  0.02899  0.00317  1.0000
  C   C82       1.0  0.97799  0.44986  0.53148  1.0000
  O   O55       1.0  0.92842  0.56008  0.51792  1.0000
  C   C83       1.0  0.98443  0.41261  0.61120  1.0000
  C   C84       1.0  0.99664  0.44968  0.93046  1.0000
  C   C85       1.0  0.95531  0.48717  0.55689  1.0000
  H   H19       1.0  0.93833  0.48521  0.63296  1.0000
  C   C86       1.0  0.98325  0.53528  0.89357  1.0000
  C   C87       1.0  0.95560  0.52916  0.98946  1.0000
  C   C88       1.0  0.99962  0.58575  0.82471  1.0000
  O   O56       1.0  0.02025  0.58439  0.73805  1.0000
  O   O57       1.0  0.99425  0.63048  0.85477  1.0000
  O   O58       1.0  0.00876  0.40823  0.89431  1.0000
  O   O59       1.0  0.94682  0.39269  0.68195  1.0000
  O   O60       1.0  0.03009  0.40472  0.60524  1.0000
  C   C89       1.0  0.00110  0.49424  0.86569  1.0000
  H   H20       1.0  0.02008  0.49761  0.79111  1.0000
  O   O61       1.0  0.69910  0.74242  0.58804  1.0000
  O   O62       1.0  0.62638  0.72738  0.88543  1.0000
  O   O63       1.0  0.68381  0.70621  0.79066  1.0000
  C   C90       1.0  0.68067  0.82140  0.55815  1.0000
  H   H21       1.0  0.69817  0.82406  0.98246  1.0000
  C   C91       1.0  0.65528  0.77423  0.72239  1.0000
  O   O64       1.0  0.62380  0.89789  0.72398  1.0000
  C   C92       1.0  0.67858  0.77768  0.62308  1.0000
  C   C93       1.0  0.65439  0.73307  0.80155  1.0000
  C   C94       1.0  0.63635  0.81457  0.74932  1.0000
  H   H22       1.0  0.61959  0.81252  0.82546  1.0000
  C   C95       1.0  0.66228  0.86205  0.58539  1.0000
  C   C96       1.0  0.64003  0.85941  0.68537  1.0000
  C   C97       1.0  0.66782  0.90572  0.50809  1.0000
  O   O65       1.0  0.69538  0.91104  0.92525  1.0000
  O   O66       1.0  0.64338  0.93779  0.52510  1.0000
  H   H23       1.0  0.35105  0.17793  0.66030  1.0000
  O   O67       1.0  0.35167  0.09382  0.75672  1.0000
  O   O68       1.0  0.28613  0.07727  0.55606  1.0000
  O   O69       1.0  0.34757  0.05986  0.95995  1.0000
  C   C98       1.0  0.33862  0.17690  0.73903  1.0000
  C   C99       1.0  0.31771  0.08652  0.97813  1.0000
  C   C100      1.0  0.32189  0.13149  0.90368  1.0000
  O   O70       1.0  0.28541  0.25245  0.91321  1.0000
  C   C101      1.0  0.33924  0.13324  0.80101  1.0000
  O   O71       1.0  0.34692  0.26824  0.61938  1.0000
  C   C102      1.0  0.30488  0.17220  0.93734  1.0000
  H   H24       1.0  0.29074  0.16945  0.51547  1.0000
  C   C103      1.0  0.31936  0.21572  0.77204  1.0000
  C   C104      1.0  0.30370  0.21484  0.87464  1.0000
  C   C105      1.0  0.31226  0.25333  0.69487  1.0000
  O   O72       1.0  0.27054  0.26665  0.70426  1.0000
  O   O73       1.0  0.41716  0.43849  0.74021  1.0000
  C   C106      1.0  0.55201  0.52975  0.53324  1.0000
  C   C107      1.0  0.51362  0.47019  0.55947  1.0000
  H   H25       1.0  0.51584  0.45541  0.63557  1.0000
  C   C108      1.0  0.46543  0.44991  0.89629  1.0000
  C   C109      1.0  0.47102  0.42846  0.99263  1.0000
  C   C110      1.0  0.41568  0.41576  0.82624  1.0000
  C   C111      1.0  0.58957  0.57379  0.61251  1.0000
  C   C112      1.0  0.55230  0.54850  0.93207  1.0000
  O   O74       1.0  0.37159  0.36468  0.85443  1.0000
  H   H26       1.0  0.50376  0.52393  0.79319  1.0000
  O   O75       1.0  0.59434  0.60175  0.89526  1.0000
  C   C113      1.0  0.50712  0.50859  0.86805  1.0000
  O   O76       1.0  0.61042  0.55679  0.68281  1.0000
  O   O77       1.0  0.59631  0.62679  0.60542  1.0000
  O   O78       1.0  0.43984  0.37075  0.52224  1.0000
  H   H27       1.0  0.17352  0.86404  0.99030  1.0000
  O   O79       1.0  0.25314  0.95100  0.59151  1.0000
  O   O80       1.0  0.27410  0.89891  0.89199  1.0000
  O   O81       1.0  0.29263  0.97602  0.79481  1.0000
  O   O82       1.0  0.10897  0.72097  0.73997  1.0000
  C   C114      1.0  0.17825  0.85079  0.56615  1.0000
  C   C115      1.0  0.22757  0.87800  0.72894  1.0000
  C   C116      1.0  0.19021  0.81851  0.75847  1.0000
  H   H28       1.0  0.19398  0.80549  0.83509  1.0000
  C   C117      1.0  0.13989  0.79143  0.59660  1.0000
  C   C118      1.0  0.14580  0.77534  0.69719  1.0000
  C   C119      1.0  0.09426  0.75084  0.52328  1.0000
  C   C120      1.0  0.22133  0.89543  0.62885  1.0000
  C   C121      1.0  0.26757  0.92004  0.80731  1.0000
  O   O83       1.0  0.09039  0.77239  0.93909  1.0000
  O   O84       1.0  0.05926  0.69440  0.54451  1.0000
  O   O85       1.0  0.73662  0.09013  0.60485  1.0000
  O   O86       1.0  0.90955  0.26255  0.74882  1.0000
  O   O87       1.0  0.92626  0.21193  0.54791  1.0000
  O   O88       1.0  0.94245  0.29126  0.95414  1.0000
  O   O89       1.0  0.75301  0.03644  0.90184  1.0000
  C   C122      1.0  0.82450  0.16825  0.73192  1.0000
  C   C123      1.0  0.87199  0.19442  0.89523  1.0000
  C   C124      1.0  0.83183  0.13603  0.92652  1.0000
  H   H29       1.0  0.83567  0.12360  0.50353  1.0000
  C   C125      1.0  0.78516  0.10976  0.76278  1.0000
  C   C126      1.0  0.78842  0.09302  0.86361  1.0000
  C   C127      1.0  0.74677  0.06770  0.68336  1.0000
  H   H30       1.0  0.82293  0.18075  0.65404  1.0000
  C   C128      1.0  0.91664  0.23465  0.97077  1.0000
  C   C129      1.0  0.86949  0.21108  0.79354  1.0000
  O   O90       1.0  0.72776  0.01160  0.69042  1.0000
  C   C130      1.0  0.52194  0.02571  0.58286  1.0000
  H   H31       1.0  0.53308  0.03562  0.66249  1.0000
  C   C131      1.0  0.46730  0.01682  0.54775  1.0000
  C   C132      1.0  0.54607  0.00234  0.91889  1.0000
  C   C133      1.0  0.56147  0.01670  0.52257  1.0000
  C   C134      1.0  0.58095  0.98811  0.84658  1.0000
  C   C135      1.0  0.49210  0.99623  0.88312  1.0000
  C   C136      1.0  0.45162  0.00271  0.94433  1.0000
  C   C137      1.0  0.42399  0.01570  0.62328  1.0000
  H   H32       1.0  0.47972  0.98345  0.80479  1.0000
  O   O91       1.0  0.36921  0.97296  0.61557  1.0000
  O   O92       1.0  0.40069  0.99584  0.90443  1.0000
  O   O93       1.0  0.44339  0.05403  0.69295  1.0000
  O   O94       1.0  0.60816  0.01723  0.56959  1.0000
  O   O95       1.0  0.55450  0.95732  0.77011  1.0000
  O   O96       1.0  0.63798  0.00875  0.86208  1.0000
  O   O97       1.0  0.28052  0.38885  0.73920  1.0000
  O   O98       1.0  0.23043  0.32055  0.93795  1.0000
  O   O99       1.0  0.30795  0.36685  0.54445  1.0000
  C   C138      1.0  0.18333  0.37373  0.75637  1.0000
  H   H33       1.0  0.19574  0.38985  0.83348  1.0000
  C   C139      1.0  0.21085  0.35112  0.59470  1.0000
  C   C140      1.0  0.22656  0.37223  0.69578  1.0000
  C   C141      1.0  0.12446  0.35295  0.72500  1.0000
  C   C142      1.0  0.15197  0.33128  0.56264  1.0000
  C   C143      1.0  0.25173  0.34595  0.52218  1.0000
  C   C144      1.0  0.10734  0.33018  0.62450  1.0000
  C   C145      1.0  0.08208  0.35106  0.80212  1.0000
  H   H34       1.0  0.13940  0.31401  0.98625  1.0000
  O   O100      1.0  0.05173  0.30707  0.58705  1.0000
  O   O101      1.0  0.10286  0.37829  0.88732  1.0000
  O   O102      1.0  0.02623  0.32040  0.78851  1.0000
  C   C146      1.0  0.94167  0.68763  0.69486  1.0000
  O   O103      1.0  0.74195  0.64529  0.75459  1.0000
  C   C147      1.0  0.76749  0.67848  0.97688  1.0000
  O   O104      1.0  0.96719  0.71550  0.91392  1.0000
  O   O105      1.0  0.92228  0.65316  0.61910  1.0000
  O   O106      1.0  0.99639  0.72992  0.70437  1.0000
  C   C148      1.0  0.86647  0.69317  0.93666  1.0000
  C   C149      1.0  0.89659  0.67926  0.77221  1.0000
  C   C150      1.0  0.80843  0.67453  0.90273  1.0000
  C   C151      1.0  0.91107  0.69563  0.87468  1.0000
  H   H35       1.0  0.87718  0.70770  0.51475  1.0000
  C   C152      1.0  0.83821  0.65835  0.73888  1.0000
  H   H36       1.0  0.82745  0.64607  0.65994  1.0000
  O   O107      1.0  0.79032  0.70954  0.55518  1.0000
  O   O108      1.0  0.71110  0.64945  0.95797  1.0000
  C   C153      1.0  0.79336  0.65727  0.79993  1.0000
  N   N10       1.0  0.37617  0.50377  0.57379  1.0000
  C   C154      1.0  0.38479  0.52755  0.99372  1.0000
  S   S10       1.0  0.39775  0.56245  0.88653  1.0000
  C   C155      1.0  0.46702  0.85063  0.51537  1.0000
  S   S11       1.0  0.41186  0.81562  0.93587  1.0000
  N   N11       1.0  0.50701  0.87438  0.57344  1.0000
  N   N12       1.0  0.12488  0.62388  0.57130  1.0000
  C   C156      1.0  0.14087  0.61338  0.99374  1.0000
  S   S12       1.0  0.16416  0.59812  0.89005  1.0000
  N   N13       1.0  0.65824  0.52184  0.87451  1.0000
  C   C157      1.0  0.66003  0.48808  0.93249  1.0000
  S   S13       1.0  0.66304  0.44052  0.51172  1.0000
  N   N14       1.0  0.97833  0.18564  0.74374  1.0000
  C   C158      1.0  0.97772  0.15104  0.80275  1.0000
  S   S14       1.0  0.97866  0.10335  0.88352  1.0000
  N   N15       1.0  0.47591  0.13862  0.88299  1.0000
  C   C159      1.0  0.50686  0.17255  0.94536  1.0000
  S   S15       1.0  0.55038  0.22117  0.53140  1.0000
  N   N16       1.0  0.81792  0.79087  0.74994  1.0000
  C   C160      1.0  0.85222  0.82398  0.81025  1.0000
  S   S16       1.0  0.89931  0.87115  0.89343  1.0000
  N   N17       1.0  0.86436  0.34148  0.86996  1.0000
  C   C161      1.0  0.82107  0.33774  0.90650  1.0000
  S   S17       1.0  0.76104  0.33531  0.95560  1.0000
  N   N18       1.0  0.20615  0.02315  0.74969  1.0000
  C   C162      1.0  0.17232  0.02601  0.80628  1.0000
  S   S18       1.0  0.12381  0.02806  0.88382  1.0000
  Zn  Zn19      1.0  0.96861  0.64888  0.50241  1.0000
  Zn  Zn20      1.0  0.27599  0.02478  0.68157  1.0000
  Zn  Zn21      1.0  0.35275  0.43375  0.65546  1.0000
  Zn  Zn22      1.0  0.58100  0.93252  0.64147  1.0000
  Zn  Zn23      1.0  0.93827  0.34346  0.81124  1.0000
  Zn  Zn24      1.0  0.04000  0.71969  0.82214  1.0000
  Zn  Zn25      1.0  0.28270  0.32187  0.82120  1.0000
  Zn  Zn26      1.0  0.02809  0.35127  0.98070  1.0000
  Zn  Zn27      1.0  0.32187  0.97394  0.98516  1.0000
  Zn  Zn28      1.0  0.35173  0.31993  0.50301  1.0000
  Zn  Zn29      1.0  0.75017  0.72147  0.68027  1.0000
  Zn  Zn30      1.0  0.97756  0.25415  0.67514  1.0000
  Zn  Zn31      1.0  0.08066  0.64923  0.65484  1.0000
  Zn  Zn32      1.0  0.40434  0.06546  0.82081  1.0000
  Zn  Zn33      1.0  0.65937  0.59443  0.81364  1.0000
  Zn  Zn34      1.0  0.68323  0.96376  0.81689  1.0000
  Zn  Zn35      1.0  0.65253  0.67777  0.98063  1.0000
  Zn  Zn36      1.0  0.68419  0.02899  0.50317  1.0000
