data_image0
_chemical_formula_structural       P2O3HO3HC2HCHC2HCHN2CHCHC2HCHC2HCHCHCHP2O3HO3HC2HCHC2HCHN2CHCHC2HCHC2HCHCHCHCo2
_chemical_formula_sum              "P4 O12 H28 C32 N4 Co2"
_cell_length_a       10.3354
_cell_length_b       9.5263
_cell_length_c       11.0105
_cell_angle_alpha    90
_cell_angle_beta     115.858
_cell_angle_gamma    90

_space_group_name_H-M_alt    "P 1"
_space_group_IT_number       1

loop_
  _space_group_symop_operation_xyz
  'x, y, z'

loop_
  _atom_site_type_symbol
  _atom_site_label
  _atom_site_symmetry_multiplicity
  _atom_site_fract_x
  _atom_site_fract_y
  _atom_site_fract_z
  _atom_site_occupancy
  P   P1        1.0  0.56728  0.56208  0.38256  1.0000
  P   P2        1.0  0.24191  0.35889  0.76634  1.0000
  O   O1        1.0  0.55300  0.44990  0.47180  1.0000
  O   O2        1.0  0.51700  0.70610  0.39920  1.0000
  O   O3        1.0  0.72930  0.56440  0.40770  1.0000
  H   H1        1.0  0.73760  0.61370  0.34820  1.0000
  O   O4        1.0  0.24190  0.20070  0.76730  1.0000
  O   O5        1.0  0.31220  0.42850  0.68960  1.0000
  O   O6        1.0  0.07950  0.40420  0.71050  1.0000
  H   H2        1.0  0.07050  0.48790  0.68420  1.0000
  C   C1        1.0  0.47100  0.50860  0.20780  1.0000
  C   C2        1.0  0.36140  0.58760  0.11310  1.0000
  H   H3        1.0  0.33540  0.67410  0.13930  1.0000
  C   C3        1.0  0.28830  0.54290  0.97970  1.0000
  H   H4        1.0  0.21310  0.59870  0.91610  1.0000
  C   C4        1.0  0.32530  0.41670  0.93940  1.0000
  C   C5        1.0  0.43560  0.33670  0.03420  1.0000
  H   H5        1.0  0.46230  0.25060  0.00790  1.0000
  C   C6        1.0  0.50730  0.38190  0.16750  1.0000
  H   H6        1.0  0.58180  0.32570  0.23160  1.0000
  N   N1        1.0  0.63700  0.44650  0.76080  1.0000
  N   N2        1.0  0.24620  0.39610  0.39580  1.0000
  C   C7        1.0  0.63560  0.48720  0.87620  1.0000
  H   H7        1.0  0.54850  0.52360  0.87280  1.0000
  C   C8        1.0  0.75390  0.47940  0.00040  1.0000
  H   H8        1.0  0.74650  0.50830  0.07970  1.0000
  C   C9        1.0  0.88320  0.42920  0.00860  1.0000
  C   C10       1.0  0.88640  0.39100  0.88760  1.0000
  H   H9        1.0  0.97300  0.35780  0.88740  1.0000
  C   C11       1.0  0.76280  0.40170  0.76830  1.0000
  H   H10       1.0  0.76750  0.37580  0.68690  1.0000
  C   C12       1.0  0.01090  0.41570  0.14140  1.0000
  C   C13       1.0  0.01620  0.49310  0.25140  1.0000
  H   H11       1.0  0.93990  0.55490  0.24100  1.0000
  C   C14       1.0  0.13390  0.47850  0.37570  1.0000
  H   H12       1.0  0.13490  0.52950  0.45030  1.0000
  C   C15       1.0  0.24080  0.32190  0.29020  1.0000
  H   H13       1.0  0.31930  0.26220  0.30300  1.0000
  C   C16       1.0  0.12600  0.32850  0.16360  1.0000
  H   H14       1.0  0.12620  0.27310  0.09190  1.0000
  P   P3        1.0  0.43272  0.06208  0.61744  1.0000
  P   P4        1.0  0.75809  0.85889  0.23366  1.0000
  O   O7        1.0  0.44700  0.94990  0.52820  1.0000
  O   O8        1.0  0.48300  0.20610  0.60080  1.0000
  O   O9        1.0  0.27070  0.06440  0.59230  1.0000
  H   H15       1.0  0.26240  0.11370  0.65180  1.0000
  O   O10       1.0  0.75810  0.70070  0.23270  1.0000
  O   O11       1.0  0.68780  0.92850  0.31040  1.0000
  O   O12       1.0  0.92050  0.90420  0.28950  1.0000
  H   H16       1.0  0.92950  0.98790  0.31580  1.0000
  C   C17       1.0  0.52900  0.00860  0.79220  1.0000
  C   C18       1.0  0.63860  0.08760  0.88690  1.0000
  H   H17       1.0  0.66460  0.17410  0.86070  1.0000
  C   C19       1.0  0.71170  0.04290  0.02030  1.0000
  H   H18       1.0  0.78690  0.09870  0.08390  1.0000
  C   C20       1.0  0.67470  0.91670  0.06060  1.0000
  C   C21       1.0  0.56440  0.83670  0.96580  1.0000
  H   H19       1.0  0.53770  0.75060  0.99210  1.0000
  C   C22       1.0  0.49270  0.88190  0.83250  1.0000
  H   H20       1.0  0.41820  0.82570  0.76840  1.0000
  N   N3        1.0  0.36300  0.94650  0.23920  1.0000
  N   N4        1.0  0.75380  0.89610  0.60420  1.0000
  C   C23       1.0  0.36440  0.98720  0.12380  1.0000
  H   H21       1.0  0.45150  0.02360  0.12720  1.0000
  C   C24       1.0  0.24610  0.97940  0.99960  1.0000
  H   H22       1.0  0.25350  0.00830  0.92030  1.0000
  C   C25       1.0  0.11680  0.92920  0.99140  1.0000
  C   C26       1.0  0.11360  0.89100  0.11240  1.0000
  H   H23       1.0  0.02700  0.85780  0.11260  1.0000
  C   C27       1.0  0.23720  0.90170  0.23170  1.0000
  H   H24       1.0  0.23250  0.87580  0.31310  1.0000
  C   C28       1.0  0.98910  0.91570  0.85860  1.0000
  C   C29       1.0  0.98380  0.99310  0.74860  1.0000
  H   H25       1.0  0.06010  0.05490  0.75900  1.0000
  C   C30       1.0  0.86610  0.97850  0.62430  1.0000
  H   H26       1.0  0.86510  0.02950  0.54970  1.0000
  C   C31       1.0  0.75920  0.82190  0.70980  1.0000
  H   H27       1.0  0.68070  0.76220  0.69700  1.0000
  C   C32       1.0  0.87400  0.82850  0.83640  1.0000
  H   H28       1.0  0.87380  0.77310  0.90810  1.0000
  Co  Co1       1.0  0.43706  0.42053  0.58288  1.0000
  Co  Co2       1.0  0.56294  0.92053  0.41712  1.0000
