data_image0
_chemical_formula_structural       P2O4HO2C3HCHCHCH2N2CHCHC2HCHCHCHCHCHCP2O4HO2C3HCHCHCH2N2CHCHC2HCHCHCHCHCHCFe2
_chemical_formula_sum              "P4 O12 H28 C32 N4 Fe2"
_cell_length_a       10.3753
_cell_length_b       9.5967
_cell_length_c       10.9622
_cell_angle_alpha    90
_cell_angle_beta     115.137
_cell_angle_gamma    90

_space_group_name_H-M_alt    "P 1"
_space_group_IT_number       1

loop_
  _space_group_symop_operation_xyz
  'x, y, z'

loop_
  _atom_site_type_symbol
  _atom_site_label
  _atom_site_symmetry_multiplicity
  _atom_site_fract_x
  _atom_site_fract_y
  _atom_site_fract_z
  _atom_site_occupancy
  P   P1        1.0  0.43434  0.55928  0.11878  1.0000
  P   P2        1.0  0.75936  0.35717  0.73361  1.0000
  O   O1        1.0  0.27390  0.56060  0.09500  1.0000
  O   O2        1.0  0.48440  0.70290  0.10180  1.0000
  O   O3        1.0  0.45130  0.44830  0.02910  1.0000
  O   O4        1.0  0.91830  0.40380  0.79010  1.0000
  H   H1        1.0  0.92590  0.48600  0.81870  1.0000
  O   O5        1.0  0.68380  0.42350  0.80890  1.0000
  O   O6        1.0  0.75790  0.19940  0.73110  1.0000
  C   C1        1.0  0.53120  0.50560  0.29300  1.0000
  C   C2        1.0  0.67650  0.41420  0.56080  1.0000
  C   C3        1.0  0.71270  0.54040  0.51960  1.0000
  H   H2        1.0  0.78670  0.59630  0.58250  1.0000
  C   C4        1.0  0.64020  0.58430  0.38630  1.0000
  H   H3        1.0  0.66620  0.66980  0.35910  1.0000
  C   C5        1.0  0.49520  0.37970  0.33420  1.0000
  H   H4        1.0  0.42110  0.32410  0.27100  1.0000
  C   C6        1.0  0.56680  0.33460  0.46700  1.0000
  H   H5        1.0  0.54070  0.24900  0.49380  1.0000
  H   H6        1.0  0.24700  0.60900  0.14100  1.0000
  N   N1        1.0  0.36040  0.44440  0.73690  1.0000
  N   N2        1.0  0.75560  0.39360  0.10690  1.0000
  C   C7        1.0  0.86650  0.47680  0.12680  1.0000
  H   H7        1.0  0.86500  0.52870  0.05240  1.0000
  C   C8        1.0  0.23530  0.40040  0.73190  1.0000
  H   H8        1.0  0.23110  0.37510  0.81390  1.0000
  C   C9        1.0  0.11620  0.42490  0.49140  1.0000
  C   C10       1.0  0.24490  0.47400  0.49690  1.0000
  H   H9        1.0  0.25210  0.50100  0.41670  1.0000
  C   C11       1.0  0.98300  0.49130  0.24990  1.0000
  H   H10       1.0  0.05750  0.55420  0.25990  1.0000
  C   C12       1.0  0.36240  0.48320  0.62030  1.0000
  H   H11       1.0  0.44870  0.51880  0.62220  1.0000
  C   C13       1.0  0.76200  0.31740  0.21240  1.0000
  H   H12       1.0  0.68500  0.25680  0.20000  1.0000
  C   C14       1.0  0.87630  0.32360  0.33850  1.0000
  H   H13       1.0  0.87680  0.26740  0.41010  1.0000
  C   C15       1.0  0.11210  0.39010  0.61330  1.0000
  H   H14       1.0  0.02570  0.35960  0.61490  1.0000
  C   C16       1.0  0.98940  0.41180  0.35970  1.0000
  P   P3        1.0  0.56566  0.05928  0.88122  1.0000
  P   P4        1.0  0.24064  0.85717  0.26639  1.0000
  O   O7        1.0  0.72610  0.06060  0.90500  1.0000
  O   O8        1.0  0.51560  0.20290  0.89820  1.0000
  O   O9        1.0  0.54870  0.94830  0.97090  1.0000
  O   O10       1.0  0.08170  0.90380  0.20990  1.0000
  H   H15       1.0  0.07410  0.98600  0.18130  1.0000
  O   O11       1.0  0.31620  0.92350  0.19110  1.0000
  O   O12       1.0  0.24210  0.69940  0.26890  1.0000
  C   C17       1.0  0.46880  0.00560  0.70700  1.0000
  C   C18       1.0  0.32350  0.91420  0.43920  1.0000
  C   C19       1.0  0.28730  0.04040  0.48040  1.0000
  H   H16       1.0  0.21330  0.09630  0.41750  1.0000
  C   C20       1.0  0.35980  0.08430  0.61370  1.0000
  H   H17       1.0  0.33380  0.16980  0.64090  1.0000
  C   C21       1.0  0.50480  0.87970  0.66580  1.0000
  H   H18       1.0  0.57890  0.82410  0.72900  1.0000
  C   C22       1.0  0.43320  0.83460  0.53300  1.0000
  H   H19       1.0  0.45930  0.74900  0.50620  1.0000
  H   H20       1.0  0.75300  0.10900  0.85900  1.0000
  N   N3        1.0  0.63960  0.94440  0.26310  1.0000
  N   N4        1.0  0.24440  0.89360  0.89310  1.0000
  C   C23       1.0  0.13350  0.97680  0.87320  1.0000
  H   H21       1.0  0.13500  0.02870  0.94760  1.0000
  C   C24       1.0  0.76470  0.90040  0.26810  1.0000
  H   H22       1.0  0.76890  0.87510  0.18610  1.0000
  C   C25       1.0  0.88380  0.92490  0.50860  1.0000
  C   C26       1.0  0.75510  0.97400  0.50310  1.0000
  H   H23       1.0  0.74790  0.00100  0.58330  1.0000
  C   C27       1.0  0.01700  0.99130  0.75010  1.0000
  H   H24       1.0  0.94250  0.05420  0.74010  1.0000
  C   C28       1.0  0.63760  0.98320  0.37970  1.0000
  H   H25       1.0  0.55130  0.01880  0.37780  1.0000
  C   C29       1.0  0.23800  0.81740  0.78760  1.0000
  H   H26       1.0  0.31500  0.75680  0.80000  1.0000
  C   C30       1.0  0.12370  0.82360  0.66150  1.0000
  H   H27       1.0  0.12320  0.76740  0.58990  1.0000
  C   C31       1.0  0.88790  0.89010  0.38670  1.0000
  H   H28       1.0  0.97430  0.85960  0.38510  1.0000
  C   C32       1.0  0.01060  0.91180  0.64030  1.0000
  Fe  Fe1       1.0  0.56344  0.41798  0.91616  1.0000
  Fe  Fe2       1.0  0.43656  0.91798  0.08384  1.0000
