data_image0
_chemical_formula_structural       O3HON4C7HCHCHC2HCHCHCHO3HON4C7HCHCHC2HCHCHCHO3HON4C7HCHCHC2HCHCHCHO3HON4C7HCHCHC2HCHCHCHCu4
_chemical_formula_sum              "O16 H32 N16 C56 Cu4"
_cell_length_a       8.5082
_cell_length_b       13.4745
_cell_length_c       12.3451
_cell_angle_alpha    90
_cell_angle_beta     106.721
_cell_angle_gamma    90

_space_group_name_H-M_alt    "P 1"
_space_group_IT_number       1

loop_
  _space_group_symop_operation_xyz
  'x, y, z'

loop_
  _atom_site_type_symbol
  _atom_site_label
  _atom_site_symmetry_multiplicity
  _atom_site_fract_x
  _atom_site_fract_y
  _atom_site_fract_z
  _atom_site_occupancy
  O   O1        1.0  0.88230  0.63500  0.26141  1.0000
  O   O2        1.0  0.78160  0.53050  0.36590  1.0000
  O   O3        1.0  0.78690  0.51860  0.57410  1.0000
  H   H1        1.0  0.78200  0.52210  0.50690  1.0000
  O   O4        1.0  0.89070  0.60830  0.72880  1.0000
  N   N1        1.0  0.02050  0.75008  0.43720  1.0000
  N   N2        1.0  0.02950  0.74351  0.61890  1.0000
  N   N3        1.0  0.48670  0.13360  0.60250  1.0000
  N   N4        1.0  0.71560  0.22030  0.65880  1.0000
  C   C1        1.0  0.87000  0.59440  0.62810  1.0000
  C   C2        1.0  0.85880  0.60560  0.35330  1.0000
  C   C3        1.0  0.93980  0.66430  0.56430  1.0000
  C   C4        1.0  0.93450  0.66940  0.45260  1.0000
  C   C5        1.0  0.07740  0.79410  0.53940  1.0000
  C   C6        1.0  0.17700  0.88430  0.55890  1.0000
  C   C7        1.0  0.15890  0.95480  0.47410  1.0000
  H   H2        1.0  0.07820  0.94580  0.40570  1.0000
  C   C8        1.0  0.29500  0.90240  0.66080  1.0000
  H   H3        1.0  0.30750  0.85730  0.71980  1.0000
  C   C9        1.0  0.39350  0.98480  0.67730  1.0000
  H   H4        1.0  0.47050  0.99580  0.74690  1.0000
  C   C10       1.0  0.37740  0.05140  0.58980  1.0000
  C   C11       1.0  0.25690  0.03730  0.48870  1.0000
  H   H5        1.0  0.24230  0.08370  0.43090  1.0000
  C   C12       1.0  0.64090  0.13920  0.67530  1.0000
  H   H6        1.0  0.68710  0.09160  0.72960  1.0000
  C   C13       1.0  0.46560  0.21620  0.53640  1.0000
  H   H7        1.0  0.37240  0.23270  0.47820  1.0000
  C   C14       1.0  0.60510  0.26980  0.57090  1.0000
  H   H8        1.0  0.62410  0.33030  0.54060  1.0000
  O   O5        1.0  0.11770  0.13500  0.23859  1.0000
  O   O6        1.0  0.21840  0.03050  0.13410  1.0000
  O   O7        1.0  0.21310  0.01860  0.92590  1.0000
  H   H9        1.0  0.21800  0.02210  0.99310  1.0000
  O   O8        1.0  0.10930  0.10830  0.77120  1.0000
  N   N5        1.0  0.97950  0.25008  0.06280  1.0000
  N   N6        1.0  0.97050  0.24351  0.88110  1.0000
  N   N7        1.0  0.51330  0.63360  0.89750  1.0000
  N   N8        1.0  0.28440  0.72030  0.84120  1.0000
  C   C15       1.0  0.13000  0.09440  0.87190  1.0000
  C   C16       1.0  0.14120  0.10560  0.14670  1.0000
  C   C17       1.0  0.06020  0.16430  0.93570  1.0000
  C   C18       1.0  0.06550  0.16940  0.04740  1.0000
  C   C19       1.0  0.92260  0.29410  0.96060  1.0000
  C   C20       1.0  0.82300  0.38430  0.94110  1.0000
  C   C21       1.0  0.84110  0.45480  0.02590  1.0000
  H   H10       1.0  0.92180  0.44580  0.09430  1.0000
  C   C22       1.0  0.70500  0.40240  0.83920  1.0000
  H   H11       1.0  0.69250  0.35730  0.78020  1.0000
  C   C23       1.0  0.60650  0.48480  0.82270  1.0000
  H   H12       1.0  0.52950  0.49580  0.75310  1.0000
  C   C24       1.0  0.62260  0.55140  0.91020  1.0000
  C   C25       1.0  0.74310  0.53730  0.01130  1.0000
  H   H13       1.0  0.75770  0.58370  0.06910  1.0000
  C   C26       1.0  0.35910  0.63920  0.82470  1.0000
  H   H14       1.0  0.31290  0.59160  0.77040  1.0000
  C   C27       1.0  0.53440  0.71620  0.96360  1.0000
  H   H15       1.0  0.62760  0.73270  0.02180  1.0000
  C   C28       1.0  0.39490  0.76980  0.92910  1.0000
  H   H16       1.0  0.37590  0.83030  0.95940  1.0000
  O   O9        1.0  0.11770  0.36500  0.73859  1.0000
  O   O10       1.0  0.21840  0.46950  0.63410  1.0000
  O   O11       1.0  0.21310  0.48140  0.42590  1.0000
  H   H17       1.0  0.21800  0.47790  0.49310  1.0000
  O   O12       1.0  0.10930  0.39170  0.27120  1.0000
  N   N9        1.0  0.97950  0.24992  0.56280  1.0000
  N   N10       1.0  0.97050  0.25649  0.38110  1.0000
  N   N11       1.0  0.51330  0.86640  0.39750  1.0000
  N   N12       1.0  0.28440  0.77970  0.34120  1.0000
  C   C29       1.0  0.13000  0.40560  0.37190  1.0000
  C   C30       1.0  0.14120  0.39440  0.64670  1.0000
  C   C31       1.0  0.06020  0.33570  0.43570  1.0000
  C   C32       1.0  0.06550  0.33060  0.54740  1.0000
  C   C33       1.0  0.92260  0.20590  0.46060  1.0000
  C   C34       1.0  0.82300  0.11570  0.44110  1.0000
  C   C35       1.0  0.84110  0.04520  0.52590  1.0000
  H   H18       1.0  0.92180  0.05420  0.59430  1.0000
  C   C36       1.0  0.70500  0.09760  0.33920  1.0000
  H   H19       1.0  0.69250  0.14270  0.28020  1.0000
  C   C37       1.0  0.60650  0.01520  0.32270  1.0000
  H   H20       1.0  0.52950  0.00420  0.25310  1.0000
  C   C38       1.0  0.62260  0.94860  0.41020  1.0000
  C   C39       1.0  0.74310  0.96270  0.51130  1.0000
  H   H21       1.0  0.75770  0.91630  0.56910  1.0000
  C   C40       1.0  0.35910  0.86080  0.32470  1.0000
  H   H22       1.0  0.31290  0.90840  0.27040  1.0000
  C   C41       1.0  0.53440  0.78380  0.46360  1.0000
  H   H23       1.0  0.62760  0.76730  0.52180  1.0000
  C   C42       1.0  0.39490  0.73020  0.42910  1.0000
  H   H24       1.0  0.37590  0.66970  0.45940  1.0000
  O   O13       1.0  0.88230  0.86500  0.76141  1.0000
  O   O14       1.0  0.78160  0.96950  0.86590  1.0000
  O   O15       1.0  0.78690  0.98140  0.07410  1.0000
  H   H25       1.0  0.78200  0.97790  0.00690  1.0000
  O   O16       1.0  0.89070  0.89170  0.22880  1.0000
  N   N13       1.0  0.02050  0.74992  0.93720  1.0000
  N   N14       1.0  0.02950  0.75649  0.11890  1.0000
  N   N15       1.0  0.48670  0.36640  0.10250  1.0000
  N   N16       1.0  0.71560  0.27970  0.15880  1.0000
  C   C43       1.0  0.87000  0.90560  0.12810  1.0000
  C   C44       1.0  0.85880  0.89440  0.85330  1.0000
  C   C45       1.0  0.93980  0.83570  0.06430  1.0000
  C   C46       1.0  0.93450  0.83060  0.95260  1.0000
  C   C47       1.0  0.07740  0.70590  0.03940  1.0000
  C   C48       1.0  0.17700  0.61570  0.05890  1.0000
  C   C49       1.0  0.15890  0.54520  0.97410  1.0000
  H   H26       1.0  0.07820  0.55420  0.90570  1.0000
  C   C50       1.0  0.29500  0.59760  0.16080  1.0000
  H   H27       1.0  0.30750  0.64270  0.21980  1.0000
  C   C51       1.0  0.39350  0.51520  0.17730  1.0000
  H   H28       1.0  0.47050  0.50420  0.24690  1.0000
  C   C52       1.0  0.37740  0.44860  0.08980  1.0000
  C   C53       1.0  0.25690  0.46270  0.98870  1.0000
  H   H29       1.0  0.24230  0.41630  0.93090  1.0000
  C   C54       1.0  0.64090  0.36080  0.17530  1.0000
  H   H30       1.0  0.68710  0.40840  0.22960  1.0000
  C   C55       1.0  0.46560  0.28380  0.03640  1.0000
  H   H31       1.0  0.37240  0.26730  0.97820  1.0000
  C   C56       1.0  0.60510  0.23020  0.07090  1.0000
  H   H32       1.0  0.62410  0.16970  0.04060  1.0000
  Cu  Cu1       1.0  0.95411  0.25093  0.71716  1.0000
  Cu  Cu2       1.0  0.95411  0.24907  0.21716  1.0000
  Cu  Cu3       1.0  0.04589  0.74907  0.28284  1.0000
  Cu  Cu4       1.0  0.04589  0.75093  0.78284  1.0000
