data_image0
_chemical_formula_structural       O3C2ONCH3CNH3O3C2OC2NH3NH3NH3CHO3C2ONCH2NH3NOH3O3C4O3C2ONCH3CNH3O3C2OC2NH3NH3C2ONCH3CNH3O4C2OC2NH3NH3O2H2CHO3C2ONCH2NH3NH3O4C4NHO3C2ONCH3CNH3O3C2OC2NH3NH3NC2HNH5O4C4OC2NH3NH3O3NHO3C2ONCH3CH2O3C2OC2NH3NH3O3C2ONCH3CNH3O3C2OC2NH3NH3NH3O4C3HNCH2NH3NH3O4C4H2O3C2ONC2HNH3O3C2OC2NH3NH3C2ONCH3CNH3O4C2OC2NH3NH3O2ZrO3Zr3OZrO3Zr3OZrO5ZrOZrOZrO7Zr3O3Zr3O3Zr3O3Zr3O
_chemical_formula_sum              "O128 C96 N48 H144 Zr24"
_cell_length_a       17.826
_cell_length_b       17.826
_cell_length_c       17.826
_cell_angle_alpha    90
_cell_angle_beta     90
_cell_angle_gamma    90

_space_group_name_H-M_alt    "P 1"
_space_group_IT_number       1

loop_
  _space_group_symop_operation_xyz
  'x, y, z'

loop_
  _atom_site_type_symbol
  _atom_site_label
  _atom_site_symmetry_multiplicity
  _atom_site_fract_x
  _atom_site_fract_y
  _atom_site_fract_z
  _atom_site_occupancy
  O   O1        1.0  0.59170  0.51310  0.71420  1.0000
  O   O2        1.0  0.69120  0.49350  0.62660  1.0000
  O   O3        1.0  0.90830  0.51310  0.78580  1.0000
  C   C1        1.0  0.65801  0.50500  0.68922  1.0000
  C   C2        1.0  0.70800  0.50450  0.75998  1.0000
  O   O4        1.0  0.80880  0.49350  0.87340  1.0000
  N   N1        1.0  0.67800  0.56260  0.81680  1.0000
  C   C3        1.0  0.79200  0.50450  0.74002  1.0000
  H   H1        1.0  0.69998  0.55490  0.86220  1.0000
  H   H2        1.0  0.69639  0.45943  0.79026  1.0000
  H   H3        1.0  0.68899  0.60969  0.80034  1.0000
  C   C4        1.0  0.84199  0.50500  0.81078  1.0000
  N   N2        1.0  0.82200  0.56260  0.68320  1.0000
  H   H4        1.0  0.80361  0.45943  0.70974  1.0000
  H   H5        1.0  0.81101  0.60969  0.69966  1.0000
  H   H6        1.0  0.80002  0.55490  0.63780  1.0000
  O   O5        1.0  0.37150  0.52040  0.69090  1.0000
  O   O6        1.0  0.28570  0.52180  0.58880  1.0000
  O   O7        1.0  0.12850  0.52040  0.80910  1.0000
  C   C5        1.0  0.30883  0.52020  0.65648  1.0000
  C   C6        1.0  0.23948  0.51470  0.70815  1.0000
  O   O8        1.0  0.21430  0.52180  0.91120  1.0000
  C   C7        1.0  0.19117  0.52020  0.84352  1.0000
  C   C8        1.0  0.26052  0.51470  0.79185  1.0000
  N   N3        1.0  0.17430  0.56110  0.67530  1.0000
  H   H7        1.0  0.13309  0.55592  0.70495  1.0000
  H   H8        1.0  0.16367  0.54456  0.62823  1.0000
  H   H9        1.0  0.21171  0.46810  0.69640  1.0000
  N   N4        1.0  0.32570  0.56110  0.82470  1.0000
  H   H10       1.0  0.36691  0.55592  0.79505  1.0000
  H   H11       1.0  0.33633  0.54456  0.87177  1.0000
  H   H12       1.0  0.28829  0.46810  0.80360  1.0000
  N   N5        1.0  0.67800  0.93740  0.68320  1.0000
  H   H13       1.0  0.69998  0.94510  0.63780  1.0000
  H   H14       1.0  0.68899  0.89031  0.69966  1.0000
  H   H15       1.0  0.69639  0.04057  0.70974  1.0000
  C   C9        1.0  0.65801  0.99500  0.81078  1.0000
  H   H16       1.0  0.80002  0.94510  0.86220  1.0000
  O   O9        1.0  0.90830  0.98690  0.71420  1.0000
  O   O10       1.0  0.80880  0.00650  0.62660  1.0000
  O   O11       1.0  0.59170  0.98690  0.78580  1.0000
  C   C10       1.0  0.84199  0.99500  0.68922  1.0000
  C   C11       1.0  0.79200  0.99550  0.75998  1.0000
  O   O12       1.0  0.69120  0.00650  0.87340  1.0000
  N   N6        1.0  0.82200  0.93740  0.81680  1.0000
  C   C12       1.0  0.70800  0.99550  0.74002  1.0000
  H   H17       1.0  0.81101  0.89031  0.80034  1.0000
  H   H18       1.0  0.80361  0.04057  0.79026  1.0000
  N   N7        1.0  0.32570  0.93890  0.67530  1.0000
  H   H19       1.0  0.36691  0.94408  0.70495  1.0000
  H   H20       1.0  0.33633  0.95544  0.62823  1.0000
  H   H21       1.0  0.28829  0.03190  0.69640  1.0000
  N   N8        1.0  0.17430  0.93890  0.82470  1.0000
  O   O13       1.0  0.28570  0.97820  0.91120  1.0000
  H   H22       1.0  0.13309  0.94408  0.79505  1.0000
  H   H23       1.0  0.21171  0.03190  0.80360  1.0000
  H   H24       1.0  0.16367  0.95544  0.87177  1.0000
  O   O14       1.0  0.12850  0.97960  0.69090  1.0000
  O   O15       1.0  0.21430  0.97820  0.58880  1.0000
  O   O16       1.0  0.37150  0.97960  0.80910  1.0000
  C   C13       1.0  0.19117  0.97980  0.65648  1.0000
  C   C14       1.0  0.26052  0.98530  0.70815  1.0000
  C   C15       1.0  0.30883  0.97980  0.84352  1.0000
  C   C16       1.0  0.23948  0.98530  0.79185  1.0000
  O   O17       1.0  0.71420  0.59170  0.51310  1.0000
  O   O18       1.0  0.62660  0.69120  0.49350  1.0000
  O   O19       1.0  0.78580  0.90830  0.51310  1.0000
  C   C17       1.0  0.68922  0.65801  0.50500  1.0000
  C   C18       1.0  0.75998  0.70800  0.50450  1.0000
  O   O20       1.0  0.87340  0.80880  0.49350  1.0000
  N   N9        1.0  0.81680  0.67800  0.56260  1.0000
  C   C19       1.0  0.74002  0.79200  0.50450  1.0000
  H   H25       1.0  0.80034  0.68899  0.60969  1.0000
  H   H26       1.0  0.79026  0.69639  0.45943  1.0000
  H   H27       1.0  0.86220  0.69998  0.55490  1.0000
  C   C20       1.0  0.81078  0.84199  0.50500  1.0000
  N   N10       1.0  0.68320  0.82200  0.56260  1.0000
  H   H28       1.0  0.70974  0.80361  0.45943  1.0000
  H   H29       1.0  0.63780  0.80002  0.55490  1.0000
  H   H30       1.0  0.69966  0.81101  0.60969  1.0000
  O   O21       1.0  0.69090  0.37150  0.52040  1.0000
  O   O22       1.0  0.58880  0.28570  0.52180  1.0000
  O   O23       1.0  0.80910  0.12850  0.52040  1.0000
  C   C21       1.0  0.65648  0.30883  0.52020  1.0000
  C   C22       1.0  0.70815  0.23948  0.51470  1.0000
  O   O24       1.0  0.91120  0.21430  0.52180  1.0000
  C   C23       1.0  0.84352  0.19117  0.52020  1.0000
  C   C24       1.0  0.79185  0.26052  0.51470  1.0000
  N   N11       1.0  0.67530  0.17430  0.56110  1.0000
  H   H31       1.0  0.70495  0.13309  0.55592  1.0000
  H   H32       1.0  0.62823  0.16367  0.54456  1.0000
  H   H33       1.0  0.69640  0.21171  0.46810  1.0000
  N   N12       1.0  0.82470  0.32570  0.56110  1.0000
  H   H34       1.0  0.79505  0.36691  0.55592  1.0000
  H   H35       1.0  0.87177  0.33633  0.54456  1.0000
  H   H36       1.0  0.80360  0.28829  0.46810  1.0000
  C   C25       1.0  0.68922  0.84199  0.99500  1.0000
  C   C26       1.0  0.75998  0.79200  0.99550  1.0000
  O   O25       1.0  0.87340  0.69120  0.00650  1.0000
  N   N13       1.0  0.81680  0.82200  0.93740  1.0000
  C   C27       1.0  0.74002  0.70800  0.99550  1.0000
  H   H37       1.0  0.86220  0.80002  0.94510  1.0000
  H   H38       1.0  0.79026  0.80361  0.04057  1.0000
  H   H39       1.0  0.80034  0.81101  0.89031  1.0000
  C   C28       1.0  0.81078  0.65801  0.99500  1.0000
  N   N14       1.0  0.68320  0.67800  0.93740  1.0000
  H   H40       1.0  0.70974  0.69639  0.04057  1.0000
  H   H41       1.0  0.63780  0.69998  0.94510  1.0000
  H   H42       1.0  0.69966  0.68899  0.89031  1.0000
  O   O26       1.0  0.71420  0.90830  0.98690  1.0000
  O   O27       1.0  0.62660  0.80880  0.00650  1.0000
  O   O28       1.0  0.78580  0.59170  0.98690  1.0000
  O   O29       1.0  0.80910  0.37150  0.97960  1.0000
  C   C29       1.0  0.65648  0.19117  0.97980  1.0000
  C   C30       1.0  0.70815  0.26052  0.98530  1.0000
  O   O30       1.0  0.91120  0.28570  0.97820  1.0000
  C   C31       1.0  0.84352  0.30883  0.97980  1.0000
  C   C32       1.0  0.79185  0.23948  0.98530  1.0000
  N   N15       1.0  0.67530  0.32570  0.93890  1.0000
  H   H43       1.0  0.70495  0.36691  0.94408  1.0000
  H   H44       1.0  0.62823  0.33633  0.95544  1.0000
  H   H45       1.0  0.69640  0.28829  0.03190  1.0000
  N   N16       1.0  0.82470  0.17430  0.93890  1.0000
  H   H46       1.0  0.79505  0.13309  0.94408  1.0000
  H   H47       1.0  0.87177  0.16367  0.95544  1.0000
  H   H48       1.0  0.80360  0.21171  0.03190  1.0000
  O   O31       1.0  0.69090  0.12850  0.97960  1.0000
  O   O32       1.0  0.58880  0.21430  0.97820  1.0000
  H   H49       1.0  0.60969  0.69966  0.81101  1.0000
  H   H50       1.0  0.45943  0.70974  0.80361  1.0000
  C   C33       1.0  0.50500  0.81078  0.84199  1.0000
  H   H51       1.0  0.55490  0.86220  0.69998  1.0000
  O   O33       1.0  0.51310  0.71420  0.59170  1.0000
  O   O34       1.0  0.49350  0.62660  0.69120  1.0000
  O   O35       1.0  0.51310  0.78580  0.90830  1.0000
  C   C34       1.0  0.50500  0.68922  0.65801  1.0000
  C   C35       1.0  0.50450  0.75998  0.70800  1.0000
  O   O36       1.0  0.49350  0.87340  0.80880  1.0000
  N   N17       1.0  0.56260  0.81680  0.67800  1.0000
  C   C36       1.0  0.50450  0.74002  0.79200  1.0000
  H   H52       1.0  0.60969  0.80034  0.68899  1.0000
  H   H53       1.0  0.45943  0.79026  0.69639  1.0000
  N   N18       1.0  0.56260  0.68320  0.82200  1.0000
  H   H54       1.0  0.55490  0.63780  0.80002  1.0000
  H   H55       1.0  0.54456  0.62823  0.16367  1.0000
  H   H56       1.0  0.46810  0.69640  0.21171  1.0000
  N   N19       1.0  0.56110  0.82470  0.32570  1.0000
  H   H57       1.0  0.55592  0.79505  0.36691  1.0000
  H   H58       1.0  0.54456  0.87177  0.33633  1.0000
  H   H59       1.0  0.46810  0.80360  0.28829  1.0000
  O   O37       1.0  0.52040  0.69090  0.37150  1.0000
  O   O38       1.0  0.52180  0.58880  0.28570  1.0000
  O   O39       1.0  0.52180  0.91120  0.21430  1.0000
  O   O40       1.0  0.52040  0.80910  0.12850  1.0000
  C   C37       1.0  0.52020  0.65648  0.30883  1.0000
  C   C38       1.0  0.51470  0.70815  0.23948  1.0000
  C   C39       1.0  0.52020  0.84352  0.19117  1.0000
  C   C40       1.0  0.51470  0.79185  0.26052  1.0000
  N   N20       1.0  0.56110  0.67530  0.17430  1.0000
  H   H60       1.0  0.55592  0.70495  0.13309  1.0000
  O   O41       1.0  0.98690  0.71420  0.90830  1.0000
  O   O42       1.0  0.00650  0.62660  0.80880  1.0000
  O   O43       1.0  0.98690  0.78580  0.59170  1.0000
  C   C41       1.0  0.99500  0.68922  0.84199  1.0000
  C   C42       1.0  0.99550  0.75998  0.79200  1.0000
  O   O44       1.0  0.00650  0.87340  0.69120  1.0000
  N   N21       1.0  0.93740  0.81680  0.82200  1.0000
  C   C43       1.0  0.99550  0.74002  0.70800  1.0000
  H   H61       1.0  0.89031  0.80034  0.81101  1.0000
  H   H62       1.0  0.04057  0.79026  0.80361  1.0000
  H   H63       1.0  0.94510  0.86220  0.80002  1.0000
  C   C44       1.0  0.99500  0.81078  0.65801  1.0000
  N   N22       1.0  0.93740  0.68320  0.67800  1.0000
  H   H64       1.0  0.04057  0.70974  0.69639  1.0000
  H   H65       1.0  0.94510  0.63780  0.69998  1.0000
  H   H66       1.0  0.89031  0.69966  0.68899  1.0000
  O   O45       1.0  0.97960  0.69090  0.12850  1.0000
  O   O46       1.0  0.97820  0.58880  0.21430  1.0000
  O   O47       1.0  0.97960  0.80910  0.37150  1.0000
  C   C45       1.0  0.97980  0.65648  0.19117  1.0000
  C   C46       1.0  0.98530  0.70815  0.26052  1.0000
  O   O48       1.0  0.97820  0.91120  0.28570  1.0000
  C   C47       1.0  0.97980  0.84352  0.30883  1.0000
  C   C48       1.0  0.98530  0.79185  0.23948  1.0000
  N   N23       1.0  0.93890  0.67530  0.32570  1.0000
  H   H67       1.0  0.94408  0.70495  0.36691  1.0000
  H   H68       1.0  0.95544  0.62823  0.33633  1.0000
  H   H69       1.0  0.03190  0.69640  0.28829  1.0000
  N   N24       1.0  0.93890  0.82470  0.17430  1.0000
  H   H70       1.0  0.94408  0.79505  0.13309  1.0000
  H   H71       1.0  0.95544  0.87177  0.16367  1.0000
  H   H72       1.0  0.03190  0.80360  0.21171  1.0000
  N   N25       1.0  0.32200  0.43740  0.18320  1.0000
  C   C49       1.0  0.20800  0.49550  0.25998  1.0000
  C   C50       1.0  0.15801  0.49500  0.18922  1.0000
  H   H73       1.0  0.30361  0.54057  0.20974  1.0000
  N   N26       1.0  0.17800  0.43740  0.31680  1.0000
  H   H74       1.0  0.31101  0.39031  0.19966  1.0000
  H   H75       1.0  0.30002  0.44510  0.13780  1.0000
  H   H76       1.0  0.19639  0.54057  0.29026  1.0000
  H   H77       1.0  0.19998  0.44510  0.36220  1.0000
  H   H78       1.0  0.18899  0.39031  0.30034  1.0000
  O   O49       1.0  0.19120  0.50650  0.12660  1.0000
  O   O50       1.0  0.40830  0.48690  0.28580  1.0000
  O   O51       1.0  0.30880  0.50650  0.37340  1.0000
  O   O52       1.0  0.09170  0.48690  0.21420  1.0000
  C   C51       1.0  0.34199  0.49500  0.31078  1.0000
  C   C52       1.0  0.29200  0.49550  0.24002  1.0000
  C   C53       1.0  0.69117  0.47980  0.34352  1.0000
  C   C54       1.0  0.76052  0.48530  0.29185  1.0000
  O   O53       1.0  0.78570  0.47820  0.08880  1.0000
  C   C55       1.0  0.80883  0.47980  0.15648  1.0000
  C   C56       1.0  0.73948  0.48530  0.20815  1.0000
  N   N27       1.0  0.82570  0.43890  0.32470  1.0000
  H   H79       1.0  0.86691  0.44408  0.29505  1.0000
  H   H80       1.0  0.83633  0.45544  0.37177  1.0000
  H   H81       1.0  0.78829  0.53190  0.30360  1.0000
  N   N28       1.0  0.67430  0.43890  0.17530  1.0000
  H   H82       1.0  0.63309  0.44408  0.20495  1.0000
  H   H83       1.0  0.66367  0.45544  0.12823  1.0000
  H   H84       1.0  0.71171  0.53190  0.19640  1.0000
  O   O54       1.0  0.62850  0.47960  0.30910  1.0000
  O   O55       1.0  0.71430  0.47820  0.41120  1.0000
  O   O56       1.0  0.87150  0.47960  0.19090  1.0000
  N   N29       1.0  0.32200  0.06260  0.31680  1.0000
  H   H85       1.0  0.30002  0.05490  0.36220  1.0000
  O   O57       1.0  0.09170  0.01310  0.28580  1.0000
  O   O58       1.0  0.19120  0.99350  0.37340  1.0000
  O   O59       1.0  0.40830  0.01310  0.21420  1.0000
  C   C57       1.0  0.15801  0.00500  0.31078  1.0000
  C   C58       1.0  0.20800  0.00450  0.24002  1.0000
  O   O60       1.0  0.30880  0.99350  0.12660  1.0000
  N   N30       1.0  0.17800  0.06260  0.18320  1.0000
  C   C59       1.0  0.29200  0.00450  0.25998  1.0000
  H   H86       1.0  0.19998  0.05490  0.13780  1.0000
  H   H87       1.0  0.19639  0.95943  0.20974  1.0000
  H   H88       1.0  0.18899  0.10969  0.19966  1.0000
  C   C60       1.0  0.34199  0.00500  0.18922  1.0000
  H   H89       1.0  0.31101  0.10969  0.30034  1.0000
  H   H90       1.0  0.30361  0.95943  0.29026  1.0000
  O   O61       1.0  0.87150  0.02040  0.30910  1.0000
  O   O62       1.0  0.78570  0.02180  0.41120  1.0000
  O   O63       1.0  0.62850  0.02040  0.19090  1.0000
  C   C61       1.0  0.80883  0.02020  0.34352  1.0000
  C   C62       1.0  0.73948  0.01470  0.29185  1.0000
  O   O64       1.0  0.71430  0.02180  0.08880  1.0000
  C   C63       1.0  0.69117  0.02020  0.15648  1.0000
  C   C64       1.0  0.76052  0.01470  0.20815  1.0000
  N   N31       1.0  0.67430  0.06110  0.32470  1.0000
  H   H91       1.0  0.63309  0.05592  0.29505  1.0000
  H   H92       1.0  0.66367  0.04456  0.37177  1.0000
  H   H93       1.0  0.71171  0.96810  0.30360  1.0000
  N   N32       1.0  0.82570  0.06110  0.17530  1.0000
  H   H94       1.0  0.86691  0.05592  0.20495  1.0000
  H   H95       1.0  0.83633  0.04456  0.12823  1.0000
  H   H96       1.0  0.78829  0.96810  0.19640  1.0000
  O   O65       1.0  0.28580  0.40830  0.48690  1.0000
  O   O66       1.0  0.37340  0.30880  0.50650  1.0000
  O   O67       1.0  0.21420  0.09170  0.48690  1.0000
  C   C65       1.0  0.31078  0.34199  0.49500  1.0000
  C   C66       1.0  0.24002  0.29200  0.49550  1.0000
  O   O68       1.0  0.12660  0.19120  0.50650  1.0000
  N   N33       1.0  0.18320  0.32200  0.43740  1.0000
  C   C67       1.0  0.25998  0.20800  0.49550  1.0000
  H   H97       1.0  0.19966  0.31101  0.39031  1.0000
  H   H98       1.0  0.20974  0.30361  0.54057  1.0000
  H   H99       1.0  0.13780  0.30002  0.44510  1.0000
  C   C68       1.0  0.18922  0.15801  0.49500  1.0000
  N   N34       1.0  0.31680  0.17800  0.43740  1.0000
  H   H100      1.0  0.29026  0.19639  0.54057  1.0000
  H   H101      1.0  0.30034  0.18899  0.39031  1.0000
  H   H102      1.0  0.36220  0.19998  0.44510  1.0000
  O   O69       1.0  0.30910  0.62850  0.47960  1.0000
  O   O70       1.0  0.41120  0.71430  0.47820  1.0000
  O   O71       1.0  0.19090  0.87150  0.47960  1.0000
  C   C69       1.0  0.34352  0.69117  0.47980  1.0000
  C   C70       1.0  0.29185  0.76052  0.48530  1.0000
  O   O72       1.0  0.08880  0.78570  0.47820  1.0000
  C   C71       1.0  0.15648  0.80883  0.47980  1.0000
  C   C72       1.0  0.20815  0.73948  0.48530  1.0000
  N   N35       1.0  0.32470  0.82570  0.43890  1.0000
  H   H103      1.0  0.29505  0.86691  0.44408  1.0000
  H   H104      1.0  0.37177  0.83633  0.45544  1.0000
  H   H105      1.0  0.30360  0.78829  0.53190  1.0000
  N   N36       1.0  0.17530  0.67430  0.43890  1.0000
  H   H106      1.0  0.20495  0.63309  0.44408  1.0000
  H   H107      1.0  0.12823  0.66367  0.45544  1.0000
  H   H108      1.0  0.19640  0.71171  0.53190  1.0000
  N   N37       1.0  0.31680  0.32200  0.06260  1.0000
  H   H109      1.0  0.36220  0.30002  0.05490  1.0000
  H   H110      1.0  0.30034  0.31101  0.10969  1.0000
  H   H111      1.0  0.29026  0.30361  0.95943  1.0000
  O   O73       1.0  0.12660  0.30880  0.99350  1.0000
  O   O74       1.0  0.28580  0.09170  0.01310  1.0000
  O   O75       1.0  0.37340  0.19120  0.99350  1.0000
  O   O76       1.0  0.21420  0.40830  0.01310  1.0000
  C   C73       1.0  0.18922  0.34199  0.00500  1.0000
  C   C74       1.0  0.31078  0.15801  0.00500  1.0000
  C   C75       1.0  0.24002  0.20800  0.00450  1.0000
  H   H112      1.0  0.13780  0.19998  0.05490  1.0000
  N   N38       1.0  0.18320  0.17800  0.06260  1.0000
  C   C76       1.0  0.25998  0.29200  0.00450  1.0000
  H   H113      1.0  0.19966  0.18899  0.10969  1.0000
  H   H114      1.0  0.20974  0.19639  0.95943  1.0000
  N   N39       1.0  0.32470  0.67430  0.06110  1.0000
  H   H115      1.0  0.29505  0.63309  0.05592  1.0000
  H   H116      1.0  0.37177  0.66367  0.04456  1.0000
  H   H117      1.0  0.30360  0.71171  0.96810  1.0000
  N   N40       1.0  0.17530  0.82570  0.06110  1.0000
  H   H118      1.0  0.20495  0.86691  0.05592  1.0000
  H   H119      1.0  0.12823  0.83633  0.04456  1.0000
  H   H120      1.0  0.19640  0.78829  0.96810  1.0000
  O   O77       1.0  0.08880  0.71430  0.02180  1.0000
  O   O78       1.0  0.30910  0.87150  0.02040  1.0000
  O   O79       1.0  0.41120  0.78570  0.02180  1.0000
  O   O80       1.0  0.19090  0.62850  0.02040  1.0000
  C   C77       1.0  0.34352  0.80883  0.02020  1.0000
  C   C78       1.0  0.29185  0.73948  0.01470  1.0000
  C   C79       1.0  0.15648  0.69117  0.02020  1.0000
  C   C80       1.0  0.20815  0.76052  0.01470  1.0000
  H   H121      1.0  0.44510  0.36220  0.19998  1.0000
  H   H122      1.0  0.39031  0.30034  0.18899  1.0000
  O   O81       1.0  0.48690  0.28580  0.40830  1.0000
  O   O82       1.0  0.50650  0.37340  0.30880  1.0000
  O   O83       1.0  0.48690  0.21420  0.09170  1.0000
  C   C81       1.0  0.49500  0.31078  0.34199  1.0000
  C   C82       1.0  0.49550  0.24002  0.29200  1.0000
  O   O84       1.0  0.50650  0.12660  0.19120  1.0000
  N   N41       1.0  0.43740  0.18320  0.32200  1.0000
  C   C83       1.0  0.49550  0.25998  0.20800  1.0000
  C   C84       1.0  0.49500  0.18922  0.15801  1.0000
  H   H123      1.0  0.54057  0.20974  0.30361  1.0000
  N   N42       1.0  0.43740  0.31680  0.17800  1.0000
  H   H124      1.0  0.39031  0.19966  0.31101  1.0000
  H   H125      1.0  0.44510  0.13780  0.30002  1.0000
  H   H126      1.0  0.54057  0.29026  0.19639  1.0000
  O   O85       1.0  0.47960  0.30910  0.62850  1.0000
  O   O86       1.0  0.47820  0.41120  0.71430  1.0000
  O   O87       1.0  0.47960  0.19090  0.87150  1.0000
  C   C85       1.0  0.47980  0.34352  0.69117  1.0000
  C   C86       1.0  0.48530  0.29185  0.76052  1.0000
  O   O88       1.0  0.47820  0.08880  0.78570  1.0000
  C   C87       1.0  0.47980  0.15648  0.80883  1.0000
  C   C88       1.0  0.48530  0.20815  0.73948  1.0000
  N   N43       1.0  0.43890  0.32470  0.82570  1.0000
  H   H127      1.0  0.44408  0.29505  0.86691  1.0000
  H   H128      1.0  0.45544  0.37177  0.83633  1.0000
  H   H129      1.0  0.53190  0.30360  0.78829  1.0000
  N   N44       1.0  0.43890  0.17530  0.67430  1.0000
  H   H130      1.0  0.44408  0.20495  0.63309  1.0000
  H   H131      1.0  0.45544  0.12823  0.66367  1.0000
  H   H132      1.0  0.53190  0.19640  0.71171  1.0000
  C   C89       1.0  0.00500  0.31078  0.15801  1.0000
  C   C90       1.0  0.00450  0.24002  0.20800  1.0000
  O   O89       1.0  0.99350  0.12660  0.30880  1.0000
  N   N45       1.0  0.06260  0.18320  0.17800  1.0000
  C   C91       1.0  0.00450  0.25998  0.29200  1.0000
  H   H133      1.0  0.10969  0.19966  0.18899  1.0000
  H   H134      1.0  0.95943  0.20974  0.19639  1.0000
  H   H135      1.0  0.05490  0.13780  0.19998  1.0000
  C   C92       1.0  0.00500  0.18922  0.34199  1.0000
  N   N46       1.0  0.06260  0.31680  0.32200  1.0000
  H   H136      1.0  0.95943  0.29026  0.30361  1.0000
  H   H137      1.0  0.10969  0.30034  0.31101  1.0000
  H   H138      1.0  0.05490  0.36220  0.30002  1.0000
  O   O90       1.0  0.01310  0.28580  0.09170  1.0000
  O   O91       1.0  0.99350  0.37340  0.19120  1.0000
  O   O92       1.0  0.01310  0.21420  0.40830  1.0000
  O   O93       1.0  0.02040  0.19090  0.62850  1.0000
  C   C93       1.0  0.02020  0.34352  0.80883  1.0000
  C   C94       1.0  0.01470  0.29185  0.73948  1.0000
  O   O94       1.0  0.02180  0.08880  0.71430  1.0000
  C   C95       1.0  0.02020  0.15648  0.69117  1.0000
  C   C96       1.0  0.01470  0.20815  0.76052  1.0000
  N   N47       1.0  0.06110  0.32470  0.67430  1.0000
  H   H139      1.0  0.05592  0.29505  0.63309  1.0000
  H   H140      1.0  0.04456  0.37177  0.66367  1.0000
  H   H141      1.0  0.96810  0.30360  0.71171  1.0000
  N   N48       1.0  0.06110  0.17530  0.82570  1.0000
  H   H142      1.0  0.05592  0.20495  0.86691  1.0000
  H   H143      1.0  0.04456  0.12823  0.83633  1.0000
  H   H144      1.0  0.96810  0.19640  0.78829  1.0000
  O   O95       1.0  0.02040  0.30910  0.87150  1.0000
  O   O96       1.0  0.02180  0.41120  0.78570  1.0000
  Zr  Zr1       1.0  0.48943  0.51118  0.63816  1.0000
  O   O97       1.0  0.93080  0.41890  0.05630  1.0000
  O   O98       1.0  0.94370  0.43080  0.91890  1.0000
  O   O99       1.0  0.43080  0.58110  0.55630  1.0000
  Zr  Zr2       1.0  0.48882  0.13816  0.98943  1.0000
  Zr  Zr3       1.0  0.51057  0.01118  0.13816  1.0000
  Zr  Zr4       1.0  0.51118  0.63816  0.48943  1.0000
  O   O100      1.0  0.41890  0.05630  0.93080  1.0000
  Zr  Zr5       1.0  0.01057  0.98882  0.63816  1.0000
  O   O101      1.0  0.56920  0.08110  0.05630  1.0000
  O   O102      1.0  0.58110  0.55630  0.43080  1.0000
  O   O103      1.0  0.06920  0.91890  0.55630  1.0000
  Zr  Zr6       1.0  0.01118  0.13816  0.51057  1.0000
  Zr  Zr7       1.0  0.36184  0.51057  0.48882  1.0000
  Zr  Zr8       1.0  0.98882  0.63816  0.01057  1.0000
  O   O104      1.0  0.08110  0.05630  0.56920  1.0000
  Zr  Zr9       1.0  0.01057  0.51118  0.86184  1.0000
  O   O105      1.0  0.44370  0.56920  0.41890  1.0000
  O   O106      1.0  0.91890  0.55630  0.06920  1.0000
  O   O107      1.0  0.06920  0.58110  0.94370  1.0000
  O   O108      1.0  0.56860  0.56860  0.56860  1.0000
  O   O109      1.0  0.93140  0.93140  0.56860  1.0000
  Zr  Zr10      1.0  0.36184  0.98943  0.01118  1.0000
  O   O110      1.0  0.93140  0.56860  0.93140  1.0000
  Zr  Zr11      1.0  0.51118  0.86184  0.01057  1.0000
  O   O111      1.0  0.56860  0.93140  0.93140  1.0000
  Zr  Zr12      1.0  0.48943  0.98882  0.86184  1.0000
  O   O112      1.0  0.44370  0.93080  0.08110  1.0000
  O   O113      1.0  0.43140  0.43140  0.43140  1.0000
  O   O114      1.0  0.58110  0.94370  0.06920  1.0000
  O   O115      1.0  0.06860  0.06860  0.43140  1.0000
  O   O116      1.0  0.43080  0.91890  0.94370  1.0000
  O   O117      1.0  0.06860  0.43140  0.06860  1.0000
  O   O118      1.0  0.43140  0.06860  0.06860  1.0000
  Zr  Zr13      1.0  0.13816  0.98943  0.48882  1.0000
  Zr  Zr14      1.0  0.98882  0.86184  0.48943  1.0000
  Zr  Zr15      1.0  0.63816  0.48943  0.51118  1.0000
  O   O119      1.0  0.05630  0.93080  0.41890  1.0000
  O   O120      1.0  0.91890  0.94370  0.43080  1.0000
  O   O121      1.0  0.55630  0.43080  0.58110  1.0000
  Zr  Zr16      1.0  0.13816  0.51057  0.01118  1.0000
  Zr  Zr17      1.0  0.51057  0.48882  0.36184  1.0000
  Zr  Zr18      1.0  0.63816  0.01057  0.98882  1.0000
  O   O122      1.0  0.05630  0.56920  0.08110  1.0000
  O   O123      1.0  0.56920  0.41890  0.44370  1.0000
  O   O124      1.0  0.55630  0.06920  0.91890  1.0000
  Zr  Zr19      1.0  0.48882  0.36184  0.51057  1.0000
  Zr  Zr20      1.0  0.98943  0.01118  0.36184  1.0000
  Zr  Zr21      1.0  0.86184  0.01057  0.51118  1.0000
  O   O125      1.0  0.41890  0.44370  0.56920  1.0000
  O   O126      1.0  0.93080  0.08110  0.44370  1.0000
  O   O127      1.0  0.94370  0.06920  0.58110  1.0000
  Zr  Zr22      1.0  0.01118  0.36184  0.98943  1.0000
  Zr  Zr23      1.0  0.98943  0.48882  0.13816  1.0000
  Zr  Zr24      1.0  0.86184  0.48943  0.98882  1.0000
  O   O128      1.0  0.08110  0.44370  0.93080  1.0000
