data_image0
_chemical_formula_structural       O3HO3N2HC7HCHCHCHC2O3HO3N2HC7HCHCHCHC2NCHCHC2HCHNCHCHC2HCHCd2
_chemical_formula_sum              "O12 H20 N6 C34 Cd2"
_cell_length_a       10.0192
_cell_length_b       10.9995
_cell_length_c       11.4502
_cell_angle_alpha    70.565
_cell_angle_beta     69.674
_cell_angle_gamma    63.328

_space_group_name_H-M_alt    "P 1"
_space_group_IT_number       1

loop_
  _space_group_symop_operation_xyz
  'x, y, z'

loop_
  _atom_site_type_symbol
  _atom_site_label
  _atom_site_symmetry_multiplicity
  _atom_site_fract_x
  _atom_site_fract_y
  _atom_site_fract_z
  _atom_site_occupancy
  O   O1        1.0  0.06640  0.78400  0.92700  1.0000
  O   O2        1.0  0.07550  0.68060  0.78500  1.0000
  O   O3        1.0  0.16410  0.43830  0.75380  1.0000
  H   H1        1.0  0.13177  0.51759  0.76488  1.0000
  O   O4        1.0  0.27700  0.22630  0.85440  1.0000
  O   O5        1.0  0.59910  0.28300  0.06670  1.0000
  O   O6        1.0  0.64890  0.06040  0.16740  1.0000
  N   N1        1.0  0.19900  0.53320  0.07940  1.0000
  N   N2        1.0  0.27850  0.32010  0.05220  1.0000
  H   H2        1.0  0.31739  0.23066  0.06642  1.0000
  C   C1        1.0  0.10040  0.67920  0.88620  1.0000
  C   C2        1.0  0.17410  0.53910  0.96530  1.0000
  C   C3        1.0  0.22230  0.40700  0.94770  1.0000
  C   C4        1.0  0.22420  0.34940  0.84820  1.0000
  C   C5        1.0  0.26270  0.39770  0.12800  1.0000
  C   C6        1.0  0.30060  0.33800  0.25460  1.0000
  C   C7        1.0  0.18850  0.38700  0.35850  1.0000
  H   H3        1.0  0.09417  0.45690  0.34769  1.0000
  C   C8        1.0  0.21900  0.32990  0.48050  1.0000
  H   H4        1.0  0.14580  0.36390  0.55047  1.0000
  C   C9        1.0  0.35610  0.22430  0.49610  1.0000
  H   H5        1.0  0.37420  0.18530  0.57739  1.0000
  C   C10       1.0  0.46820  0.17470  0.39310  1.0000
  H   H6        1.0  0.56076  0.10240  0.40498  1.0000
  C   C11       1.0  0.44140  0.23400  0.27060  1.0000
  C   C12       1.0  0.57290  0.18850  0.15980  1.0000
  O   O7        1.0  0.93360  0.21600  0.07300  1.0000
  O   O8        1.0  0.92450  0.31940  0.21500  1.0000
  O   O9        1.0  0.83590  0.56170  0.24620  1.0000
  H   H7        1.0  0.86823  0.48241  0.23512  1.0000
  O   O10       1.0  0.72300  0.77370  0.14560  1.0000
  O   O11       1.0  0.40090  0.71700  0.93330  1.0000
  O   O12       1.0  0.35110  0.93960  0.83260  1.0000
  N   N3        1.0  0.80100  0.46680  0.92060  1.0000
  N   N4        1.0  0.72150  0.67990  0.94780  1.0000
  H   H8        1.0  0.68261  0.76934  0.93358  1.0000
  C   C13       1.0  0.89960  0.32080  0.11380  1.0000
  C   C14       1.0  0.82590  0.46090  0.03470  1.0000
  C   C15       1.0  0.77770  0.59300  0.05230  1.0000
  C   C16       1.0  0.77580  0.65060  0.15180  1.0000
  C   C17       1.0  0.73730  0.60230  0.87200  1.0000
  C   C18       1.0  0.69940  0.66200  0.74540  1.0000
  C   C19       1.0  0.81150  0.61300  0.64150  1.0000
  H   H9        1.0  0.90583  0.54310  0.65231  1.0000
  C   C20       1.0  0.78100  0.67010  0.51950  1.0000
  H   H10       1.0  0.85420  0.63609  0.44953  1.0000
  C   C21       1.0  0.64390  0.77570  0.50390  1.0000
  H   H11       1.0  0.62580  0.81470  0.42261  1.0000
  C   C22       1.0  0.53180  0.82530  0.60690  1.0000
  H   H12       1.0  0.43924  0.89760  0.59502  1.0000
  C   C23       1.0  0.55860  0.76600  0.72940  1.0000
  C   C24       1.0  0.42710  0.81150  0.84020  1.0000
  N   N5        1.0  0.30910  0.66500  0.24680  1.0000
  C   C25       1.0  0.43960  0.55540  0.23840  1.0000
  H   H13       1.0  0.48019  0.52208  0.16371  1.0000
  C   C26       1.0  0.52030  0.48660  0.33380  1.0000
  H   H14       1.0  0.61170  0.40977  0.32252  1.0000
  C   C27       1.0  0.46210  0.53450  0.44640  1.0000
  C   C28       1.0  0.32400  0.65050  0.45510  1.0000
  H   H15       1.0  0.28020  0.68638  0.52852  1.0000
  C   C29       1.0  0.25360  0.71090  0.35650  1.0000
  H   H16       1.0  0.16219  0.78817  0.36496  1.0000
  N   N6        1.0  0.69090  0.33500  0.75320  1.0000
  C   C30       1.0  0.56040  0.44460  0.76160  1.0000
  H   H17       1.0  0.51981  0.47792  0.83629  1.0000
  C   C31       1.0  0.47970  0.51340  0.66620  1.0000
  H   H18       1.0  0.38830  0.59023  0.67749  1.0000
  C   C32       1.0  0.53790  0.46550  0.55360  1.0000
  C   C33       1.0  0.67600  0.34950  0.54490  1.0000
  H   H19       1.0  0.71980  0.31362  0.47148  1.0000
  C   C34       1.0  0.74640  0.28910  0.64350  1.0000
  H   H20       1.0  0.83781  0.21183  0.63504  1.0000
  Cd  Cd1       1.0  0.18071  0.74836  0.08987  1.0000
  Cd  Cd2       1.0  0.81929  0.25164  0.91013  1.0000
