data_image0
_chemical_formula_structural       CO2CO2COHOCO2CO2COHOCO2CO2COHO2HOCO2CO2C2OHCO3CO2COHCO3CO4COHOCO2C2OCO2HOCO2COCO3COHO2CO2CO2COHCOHOCO2CO2COHOCO2CO2CO2COHCO3CO2COHCO3CO2COCO3HO2CO2HC2O2COCO3HCO2C2O4HCO2Cu27
_chemical_formula_sum              "C54 O108 H18 Cu27"
_cell_length_a       21.4078
_cell_length_b       21.4078
_cell_length_c       8.0385
_cell_angle_alpha    90
_cell_angle_beta     90
_cell_angle_gamma    120

_space_group_name_H-M_alt    "P 1"
_space_group_IT_number       1

loop_
  _space_group_symop_operation_xyz
  'x, y, z'

loop_
  _atom_site_type_symbol
  _atom_site_label
  _atom_site_symmetry_multiplicity
  _atom_site_fract_x
  _atom_site_fract_y
  _atom_site_fract_z
  _atom_site_occupancy
  C   C1        1.0  0.96180  0.15760  0.22180  1.0000
  O   O1        1.0  0.02559  0.17593  0.19370  1.0000
  O   O2        1.0  0.93507  0.19660  0.18660  1.0000
  C   C2        1.0  0.84240  0.03820  0.22180  1.0000
  O   O3        1.0  0.82407  0.97441  0.19370  1.0000
  O   O4        1.0  0.80340  0.06493  0.18660  1.0000
  C   C3        1.0  0.91525  0.08475  0.31320  1.0000
  O   O5        1.0  0.90095  0.09905  0.47580  1.0000
  H   H1        1.0  0.87885  0.12115  0.47117  1.0000
  O   O6        1.0  0.95244  0.04756  0.32680  1.0000
  C   C4        1.0  0.62847  0.49093  0.55513  1.0000
  O   O7        1.0  0.69226  0.50926  0.52703  1.0000
  O   O8        1.0  0.60174  0.52993  0.51993  1.0000
  C   C5        1.0  0.50907  0.37153  0.55513  1.0000
  O   O9        1.0  0.49074  0.30774  0.52703  1.0000
  O   O10       1.0  0.47007  0.39826  0.51993  1.0000
  C   C6        1.0  0.58192  0.41808  0.64653  1.0000
  O   O11       1.0  0.56762  0.43238  0.80913  1.0000
  H   H2        1.0  0.54552  0.45448  0.80451  1.0000
  O   O12       1.0  0.61911  0.38089  0.66013  1.0000
  C   C7        1.0  0.29513  0.82427  0.88847  1.0000
  O   O13       1.0  0.35892  0.84260  0.86037  1.0000
  O   O14       1.0  0.26840  0.86327  0.85327  1.0000
  C   C8        1.0  0.17573  0.70487  0.88847  1.0000
  O   O15       1.0  0.15740  0.64108  0.86037  1.0000
  O   O16       1.0  0.13673  0.73160  0.85327  1.0000
  C   C9        1.0  0.24858  0.75142  0.97987  1.0000
  O   O17       1.0  0.23428  0.76572  0.14247  1.0000
  H   H3        1.0  0.21219  0.78781  0.13784  1.0000
  O   O18       1.0  0.28577  0.71423  0.99347  1.0000
  O   O19       1.0  0.90095  0.80190  0.47580  1.0000
  H   H4        1.0  0.87885  0.75771  0.47117  1.0000
  O   O20       1.0  0.95244  0.90488  0.32680  1.0000
  C   C10       1.0  0.96180  0.80420  0.22180  1.0000
  O   O21       1.0  0.02559  0.84966  0.19370  1.0000
  O   O22       1.0  0.93507  0.73847  0.18660  1.0000
  C   C11       1.0  0.84240  0.80420  0.22180  1.0000
  O   O23       1.0  0.82407  0.84966  0.19370  1.0000
  O   O24       1.0  0.80340  0.73847  0.18660  1.0000
  C   C12       1.0  0.91525  0.83050  0.31320  1.0000
  C   C13       1.0  0.58192  0.16383  0.64653  1.0000
  O   O25       1.0  0.56762  0.13523  0.80913  1.0000
  H   H5        1.0  0.54552  0.09104  0.80451  1.0000
  C   C14       1.0  0.62847  0.13753  0.55513  1.0000
  O   O26       1.0  0.61911  0.23821  0.66013  1.0000
  O   O27       1.0  0.69226  0.18299  0.52703  1.0000
  O   O28       1.0  0.60174  0.07180  0.51993  1.0000
  C   C15       1.0  0.50907  0.13753  0.55513  1.0000
  O   O29       1.0  0.49074  0.18299  0.52703  1.0000
  O   O30       1.0  0.47007  0.07180  0.51993  1.0000
  C   C16       1.0  0.24858  0.49717  0.97987  1.0000
  O   O31       1.0  0.23428  0.46857  0.14247  1.0000
  H   H6        1.0  0.21219  0.42437  0.13784  1.0000
  C   C17       1.0  0.29513  0.47087  0.88847  1.0000
  O   O32       1.0  0.28577  0.57155  0.99347  1.0000
  O   O33       1.0  0.35892  0.51633  0.86037  1.0000
  O   O34       1.0  0.26840  0.40514  0.85327  1.0000
  C   C18       1.0  0.17573  0.47087  0.88847  1.0000
  O   O35       1.0  0.15740  0.51633  0.86037  1.0000
  O   O36       1.0  0.13673  0.40514  0.85327  1.0000
  O   O37       1.0  0.15034  0.17593  0.19370  1.0000
  O   O38       1.0  0.26153  0.19660  0.18660  1.0000
  C   C19       1.0  0.16950  0.08475  0.31320  1.0000
  O   O39       1.0  0.19810  0.09905  0.47580  1.0000
  H   H7        1.0  0.24229  0.12115  0.47117  1.0000
  O   O40       1.0  0.09512  0.04756  0.32680  1.0000
  C   C20       1.0  0.19580  0.03820  0.22180  1.0000
  O   O41       1.0  0.15034  0.97441  0.19370  1.0000
  O   O42       1.0  0.26153  0.06493  0.18660  1.0000
  C   C21       1.0  0.19580  0.15760  0.22180  1.0000
  C   C22       1.0  0.86247  0.37153  0.55513  1.0000
  O   O43       1.0  0.92820  0.52993  0.51993  1.0000
  C   C23       1.0  0.83617  0.41808  0.64653  1.0000
  O   O44       1.0  0.86477  0.43238  0.80913  1.0000
  O   O45       1.0  0.81701  0.50926  0.52703  1.0000
  H   H8        1.0  0.90896  0.45448  0.80451  1.0000
  O   O46       1.0  0.76179  0.38089  0.66013  1.0000
  C   C24       1.0  0.86247  0.49093  0.55513  1.0000
  O   O47       1.0  0.81701  0.30774  0.52703  1.0000
  O   O48       1.0  0.92820  0.39826  0.51993  1.0000
  C   C25       1.0  0.52913  0.70487  0.88847  1.0000
  O   O49       1.0  0.48367  0.64108  0.86037  1.0000
  C   C26       1.0  0.52913  0.82427  0.88847  1.0000
  O   O50       1.0  0.59486  0.73160  0.85327  1.0000
  O   O51       1.0  0.48367  0.84260  0.86037  1.0000
  O   O52       1.0  0.59486  0.86327  0.85327  1.0000
  C   C27       1.0  0.50283  0.75142  0.97987  1.0000
  O   O53       1.0  0.53143  0.76572  0.14247  1.0000
  H   H9        1.0  0.57563  0.78781  0.13784  1.0000
  O   O54       1.0  0.42845  0.71423  0.99347  1.0000
  O   O55       1.0  0.04756  0.95244  0.67320  1.0000
  C   C28       1.0  0.15760  0.96180  0.77820  1.0000
  O   O56       1.0  0.17593  0.02559  0.80630  1.0000
  O   O57       1.0  0.19660  0.93507  0.81340  1.0000
  C   C29       1.0  0.03820  0.84240  0.77820  1.0000
  O   O58       1.0  0.97441  0.82407  0.80630  1.0000
  O   O59       1.0  0.06493  0.80340  0.81340  1.0000
  C   C30       1.0  0.08475  0.91525  0.68680  1.0000
  O   O60       1.0  0.09905  0.90095  0.52420  1.0000
  H   H10       1.0  0.12115  0.87885  0.52883  1.0000
  C   C31       1.0  0.75142  0.24858  0.02013  1.0000
  O   O61       1.0  0.76572  0.23428  0.85753  1.0000
  H   H11       1.0  0.78781  0.21219  0.86216  1.0000
  O   O62       1.0  0.71423  0.28577  0.00653  1.0000
  C   C32       1.0  0.82427  0.29513  0.11153  1.0000
  O   O63       1.0  0.84260  0.35892  0.13963  1.0000
  O   O64       1.0  0.86327  0.26840  0.14673  1.0000
  C   C33       1.0  0.70487  0.17573  0.11153  1.0000
  O   O65       1.0  0.64108  0.15740  0.13963  1.0000
  O   O66       1.0  0.73160  0.13673  0.14673  1.0000
  C   C34       1.0  0.41808  0.58192  0.35347  1.0000
  O   O67       1.0  0.43238  0.56762  0.19087  1.0000
  H   H12       1.0  0.45448  0.54552  0.19549  1.0000
  O   O68       1.0  0.38089  0.61911  0.33987  1.0000
  C   C35       1.0  0.49093  0.62847  0.44487  1.0000
  O   O69       1.0  0.50926  0.69226  0.47297  1.0000
  O   O70       1.0  0.52993  0.60174  0.48007  1.0000
  C   C36       1.0  0.37153  0.50907  0.44487  1.0000
  O   O71       1.0  0.30774  0.49074  0.47297  1.0000
  O   O72       1.0  0.39826  0.47007  0.48007  1.0000
  C   C37       1.0  0.80420  0.96180  0.77820  1.0000
  O   O73       1.0  0.84966  0.02559  0.80630  1.0000
  O   O74       1.0  0.73847  0.93507  0.81340  1.0000
  C   C38       1.0  0.83050  0.91525  0.68680  1.0000
  O   O75       1.0  0.80190  0.90095  0.52420  1.0000
  H   H13       1.0  0.75771  0.87885  0.52883  1.0000
  C   C39       1.0  0.80420  0.84240  0.77820  1.0000
  O   O76       1.0  0.84966  0.82407  0.80630  1.0000
  O   O77       1.0  0.90488  0.95244  0.67320  1.0000
  O   O78       1.0  0.73847  0.80340  0.81340  1.0000
  C   C40       1.0  0.47087  0.29513  0.11153  1.0000
  O   O79       1.0  0.51633  0.35892  0.13963  1.0000
  O   O80       1.0  0.40514  0.26840  0.14673  1.0000
  C   C41       1.0  0.49717  0.24858  0.02013  1.0000
  O   O81       1.0  0.46857  0.23428  0.85753  1.0000
  H   H14       1.0  0.42437  0.21219  0.86216  1.0000
  C   C42       1.0  0.47087  0.17573  0.11153  1.0000
  O   O82       1.0  0.51633  0.15740  0.13963  1.0000
  O   O83       1.0  0.57155  0.28577  0.00653  1.0000
  O   O84       1.0  0.40514  0.13673  0.14673  1.0000
  C   C43       1.0  0.13753  0.62847  0.44487  1.0000
  O   O85       1.0  0.18299  0.69226  0.47297  1.0000
  O   O86       1.0  0.07180  0.60174  0.48007  1.0000
  C   C44       1.0  0.16383  0.58192  0.35347  1.0000
  O   O87       1.0  0.13523  0.56762  0.19087  1.0000
  C   C45       1.0  0.13753  0.50907  0.44487  1.0000
  O   O88       1.0  0.18299  0.49074  0.47297  1.0000
  O   O89       1.0  0.23821  0.61911  0.33987  1.0000
  O   O90       1.0  0.07180  0.47007  0.48007  1.0000
  H   H15       1.0  0.09104  0.54552  0.19549  1.0000
  O   O91       1.0  0.04756  0.09512  0.67320  1.0000
  O   O92       1.0  0.09905  0.19810  0.52420  1.0000
  C   C46       1.0  0.15760  0.19580  0.77820  1.0000
  O   O93       1.0  0.17593  0.15034  0.80630  1.0000
  O   O94       1.0  0.19660  0.26153  0.81340  1.0000
  H   H16       1.0  0.12115  0.24229  0.52883  1.0000
  C   C47       1.0  0.08475  0.16950  0.68680  1.0000
  C   C48       1.0  0.03820  0.19580  0.77820  1.0000
  O   O95       1.0  0.97441  0.15034  0.80630  1.0000
  O   O96       1.0  0.06493  0.26153  0.81340  1.0000
  C   C49       1.0  0.70487  0.52913  0.11153  1.0000
  O   O97       1.0  0.64108  0.48367  0.13963  1.0000
  C   C50       1.0  0.75142  0.50283  0.02013  1.0000
  O   O98       1.0  0.73160  0.59486  0.14673  1.0000
  O   O99       1.0  0.76572  0.53143  0.85753  1.0000
  O   O100      1.0  0.71423  0.42845  0.00653  1.0000
  H   H17       1.0  0.78781  0.57563  0.86216  1.0000
  C   C51       1.0  0.82427  0.52913  0.11153  1.0000
  O   O101      1.0  0.84260  0.48367  0.13963  1.0000
  O   O102      1.0  0.86327  0.59486  0.14673  1.0000
  C   C52       1.0  0.37153  0.86247  0.44487  1.0000
  C   C53       1.0  0.41808  0.83617  0.35347  1.0000
  O   O103      1.0  0.30774  0.81701  0.47297  1.0000
  O   O104      1.0  0.39826  0.92820  0.48007  1.0000
  O   O105      1.0  0.43238  0.86477  0.19087  1.0000
  O   O106      1.0  0.38089  0.76179  0.33987  1.0000
  H   H18       1.0  0.45448  0.90896  0.19549  1.0000
  C   C54       1.0  0.49093  0.86247  0.44487  1.0000
  O   O107      1.0  0.50926  0.81701  0.47297  1.0000
  O   O108      1.0  0.52993  0.92820  0.48007  1.0000
  Cu  Cu1       1.0  0.33333  0.16667  0.16667  1.0000
  Cu  Cu2       1.0  0.00000  0.50000  0.50000  1.0000
  Cu  Cu3       1.0  0.16667  0.83333  0.83333  1.0000
  Cu  Cu4       1.0  0.66667  0.83333  0.83333  1.0000
  Cu  Cu5       1.0  0.16667  0.33333  0.83333  1.0000
  Cu  Cu6       1.0  0.05346  0.10693  0.26685  1.0000
  Cu  Cu7       1.0  0.72013  0.44026  0.60018  1.0000
  Cu  Cu8       1.0  0.38680  0.77360  0.93352  1.0000
  Cu  Cu9       1.0  0.89307  0.94654  0.26685  1.0000
  Cu  Cu10      1.0  0.55974  0.27987  0.60018  1.0000
  Cu  Cu11      1.0  0.22640  0.61320  0.93352  1.0000
  Cu  Cu12      1.0  0.05346  0.94654  0.26685  1.0000
  Cu  Cu13      1.0  0.72013  0.27987  0.60018  1.0000
  Cu  Cu14      1.0  0.38680  0.61320  0.93352  1.0000
  Cu  Cu15      1.0  0.10693  0.05346  0.73315  1.0000
  Cu  Cu16      1.0  0.77360  0.38680  0.06648  1.0000
  Cu  Cu17      1.0  0.44026  0.72013  0.39982  1.0000
  Cu  Cu18      1.0  0.94654  0.89307  0.73315  1.0000
  Cu  Cu19      1.0  0.61320  0.22640  0.06648  1.0000
  Cu  Cu20      1.0  0.27987  0.55974  0.39982  1.0000
  Cu  Cu21      1.0  0.94654  0.05346  0.73315  1.0000
  Cu  Cu22      1.0  0.61320  0.38680  0.06648  1.0000
  Cu  Cu23      1.0  0.27987  0.72013  0.39982  1.0000
  Cu  Cu24      1.0  0.83333  0.16667  0.16667  1.0000
  Cu  Cu25      1.0  0.50000  0.50000  0.50000  1.0000
  Cu  Cu26      1.0  0.83333  0.66667  0.16667  1.0000
  Cu  Cu27      1.0  0.50000  0.00000  0.50000  1.0000
