data_image0
_chemical_formula_structural       O2HO4N2HC7HCHCHCHC2O2HO4N2HC7HCHCHCHC2Sr2
_chemical_formula_sum              "O12 H12 N4 C24 Sr2"
_cell_length_a       8.6642
_cell_length_b       9.7845
_cell_length_c       9.9709
_cell_angle_alpha    93.422
_cell_angle_beta     98.811
_cell_angle_gamma    105.986

_space_group_name_H-M_alt    "P 1"
_space_group_IT_number       1

loop_
  _space_group_symop_operation_xyz
  'x, y, z'

loop_
  _atom_site_type_symbol
  _atom_site_label
  _atom_site_symmetry_multiplicity
  _atom_site_fract_x
  _atom_site_fract_y
  _atom_site_fract_z
  _atom_site_occupancy
  O   O1        1.0  0.42645  0.13329  0.15928  1.0000
  O   O2        1.0  0.35620  0.32327  0.10255  1.0000
  H   H1        1.0  0.38030  0.41110  0.13230  1.0000
  O   O3        1.0  0.42240  0.57417  0.18246  1.0000
  O   O4        1.0  0.57870  0.72790  0.35511  1.0000
  O   O5        1.0  0.85889  0.07499  0.42856  1.0000
  O   O6        1.0  0.67589  0.03479  0.56354  1.0000
  N   N1        1.0  0.64601  0.28374  0.38963  1.0000
  N   N2        1.0  0.70356  0.51379  0.46218  1.0000
  H   H2        1.0  0.74940  0.59690  0.51350  1.0000
  C   C1        1.0  0.44010  0.26183  0.18246  1.0000
  C   C2        1.0  0.52760  0.60738  0.29320  1.0000
  C   C3        1.0  0.55360  0.34658  0.30346  1.0000
  C   C4        1.0  0.58840  0.49026  0.34739  1.0000
  C   C5        1.0  0.73690  0.38812  0.48493  1.0000
  C   C6        1.0  0.85920  0.37594  0.60005  1.0000
  C   C7        1.0  0.94370  0.49570  0.69300  1.0000
  H   H3        1.0  0.91960  0.58190  0.68290  1.0000
  C   C8        1.0  0.06230  0.48800  0.79950  1.0000
  H   H4        1.0  0.11650  0.56860  0.86070  1.0000
  C   C9        1.0  0.10110  0.36170  0.81580  1.0000
  H   H5        1.0  0.18240  0.35740  0.88670  1.0000
  C   C10       1.0  0.01820  0.24140  0.72580  1.0000
  H   H6        1.0  0.04420  0.15610  0.73650  1.0000
  C   C11       1.0  0.89610  0.24707  0.61948  1.0000
  C   C12       1.0  0.80560  0.11034  0.53070  1.0000
  O   O7        1.0  0.57355  0.86671  0.84072  1.0000
  O   O8        1.0  0.64380  0.67673  0.89745  1.0000
  H   H7        1.0  0.61970  0.58890  0.86770  1.0000
  O   O9        1.0  0.57760  0.42583  0.81754  1.0000
  O   O10       1.0  0.42130  0.27210  0.64489  1.0000
  O   O11       1.0  0.14111  0.92501  0.57144  1.0000
  O   O12       1.0  0.32411  0.96521  0.43646  1.0000
  N   N3        1.0  0.35399  0.71626  0.61037  1.0000
  N   N4        1.0  0.29644  0.48621  0.53782  1.0000
  H   H8        1.0  0.25060  0.40310  0.48650  1.0000
  C   C13       1.0  0.55990  0.73817  0.81754  1.0000
  C   C14       1.0  0.47240  0.39262  0.70680  1.0000
  C   C15       1.0  0.44640  0.65342  0.69654  1.0000
  C   C16       1.0  0.41160  0.50974  0.65261  1.0000
  C   C17       1.0  0.26310  0.61188  0.51507  1.0000
  C   C18       1.0  0.14080  0.62406  0.39995  1.0000
  C   C19       1.0  0.05630  0.50430  0.30700  1.0000
  H   H9        1.0  0.08040  0.41810  0.31710  1.0000
  C   C20       1.0  0.93770  0.51200  0.20050  1.0000
  H   H10       1.0  0.88350  0.43140  0.13930  1.0000
  C   C21       1.0  0.89890  0.63830  0.18420  1.0000
  H   H11       1.0  0.81760  0.64260  0.11330  1.0000
  C   C22       1.0  0.98180  0.75860  0.27420  1.0000
  H   H12       1.0  0.95580  0.84390  0.26350  1.0000
  C   C23       1.0  0.10390  0.75293  0.38052  1.0000
  C   C24       1.0  0.19440  0.88966  0.46930  1.0000
  Sr  Sr1       1.0  0.55116  0.97469  0.30215  1.0000
  Sr  Sr2       1.0  0.44884  0.02531  0.69785  1.0000
