data_image0
_chemical_formula_structural       OCO2CO2C2O4CO2COCOCO4CO2CO2CO2COZn4OCO2CO2C2O4CO2COCOCO4CO2CO2CO2COZn4
_chemical_formula_sum              "O48 C24 Zn8"
_cell_length_a       9.4238
_cell_length_b       16.1699
_cell_length_c       15.1752
_cell_angle_alpha    90
_cell_angle_beta     107.413
_cell_angle_gamma    90

_space_group_name_H-M_alt    "P 1"
_space_group_IT_number       1

loop_
  _space_group_symop_operation_xyz
  'x, y, z'

loop_
  _atom_site_type_symbol
  _atom_site_label
  _atom_site_symmetry_multiplicity
  _atom_site_fract_x
  _atom_site_fract_y
  _atom_site_fract_z
  _atom_site_occupancy
  O   O1        1.0  0.07164  0.24682  0.42051  1.0000
  C   C1        1.0  0.20710  0.22885  0.45325  1.0000
  O   O2        1.0  0.27784  0.18053  0.41850  1.0000
  O   O3        1.0  0.42836  0.25318  0.07949  1.0000
  C   C2        1.0  0.29290  0.27115  0.04675  1.0000
  O   O4        1.0  0.22216  0.31947  0.08150  1.0000
  O   O5        1.0  0.96348  0.43117  0.07959  1.0000
  C   C3        1.0  0.97840  0.50000  0.04595  1.0000
  C   C4        1.0  0.02160  0.50000  0.45405  1.0000
  O   O6        1.0  0.03652  0.43117  0.42040  1.0000
  O   O7        1.0  0.03652  0.56883  0.42040  1.0000
  O   O8        1.0  0.96348  0.56883  0.07959  1.0000
  O   O9        1.0  0.57164  0.74682  0.42051  1.0000
  C   C5        1.0  0.70710  0.72885  0.45325  1.0000
  O   O10       1.0  0.77784  0.68053  0.41850  1.0000
  O   O11       1.0  0.92836  0.75318  0.07949  1.0000
  C   C6        1.0  0.79290  0.77115  0.04675  1.0000
  O   O12       1.0  0.72216  0.81947  0.08150  1.0000
  C   C7        1.0  0.47840  0.00000  0.04595  1.0000
  O   O13       1.0  0.46348  0.93117  0.07959  1.0000
  C   C8        1.0  0.52160  0.00000  0.45405  1.0000
  O   O14       1.0  0.53652  0.93117  0.42040  1.0000
  O   O15       1.0  0.53652  0.06883  0.42040  1.0000
  O   O16       1.0  0.46348  0.06883  0.07959  1.0000
  O   O17       1.0  0.92836  0.24682  0.07949  1.0000
  C   C9        1.0  0.79290  0.22885  0.04675  1.0000
  O   O18       1.0  0.72216  0.18053  0.08150  1.0000
  O   O19       1.0  0.57164  0.25318  0.42051  1.0000
  C   C10       1.0  0.70710  0.27115  0.45325  1.0000
  O   O20       1.0  0.77784  0.31947  0.41850  1.0000
  O   O21       1.0  0.42836  0.74682  0.07949  1.0000
  C   C11       1.0  0.29290  0.72885  0.04675  1.0000
  O   O22       1.0  0.22216  0.68053  0.08150  1.0000
  O   O23       1.0  0.07164  0.75318  0.42051  1.0000
  C   C12       1.0  0.20710  0.77115  0.45325  1.0000
  O   O24       1.0  0.27784  0.81947  0.41850  1.0000
  Zn  Zn1       1.0  0.00000  0.33387  0.00000  1.0000
  Zn  Zn2       1.0  0.50000  0.83387  0.00000  1.0000
  Zn  Zn3       1.0  0.00000  0.66613  0.00000  1.0000
  Zn  Zn4       1.0  0.50000  0.16613  0.00000  1.0000
  O   O25       1.0  0.07164  0.24682  0.92051  1.0000
  C   C13       1.0  0.20710  0.22885  0.95325  1.0000
  O   O26       1.0  0.27784  0.18053  0.91850  1.0000
  O   O27       1.0  0.42836  0.25318  0.57949  1.0000
  C   C14       1.0  0.29290  0.27115  0.54675  1.0000
  O   O28       1.0  0.22216  0.31947  0.58150  1.0000
  O   O29       1.0  0.96348  0.43117  0.57959  1.0000
  C   C15       1.0  0.97840  0.50000  0.54595  1.0000
  C   C16       1.0  0.02160  0.50000  0.95405  1.0000
  O   O30       1.0  0.03652  0.43117  0.92040  1.0000
  O   O31       1.0  0.03652  0.56883  0.92040  1.0000
  O   O32       1.0  0.96348  0.56883  0.57959  1.0000
  O   O33       1.0  0.57164  0.74682  0.92051  1.0000
  C   C17       1.0  0.70710  0.72885  0.95325  1.0000
  O   O34       1.0  0.77784  0.68053  0.91850  1.0000
  O   O35       1.0  0.92836  0.75318  0.57949  1.0000
  C   C18       1.0  0.79290  0.77115  0.54675  1.0000
  O   O36       1.0  0.72216  0.81947  0.58150  1.0000
  C   C19       1.0  0.47840  0.00000  0.54595  1.0000
  O   O37       1.0  0.46348  0.93117  0.57959  1.0000
  C   C20       1.0  0.52160  0.00000  0.95405  1.0000
  O   O38       1.0  0.53652  0.93117  0.92040  1.0000
  O   O39       1.0  0.53652  0.06883  0.92040  1.0000
  O   O40       1.0  0.46348  0.06883  0.57959  1.0000
  O   O41       1.0  0.92836  0.24682  0.57949  1.0000
  C   C21       1.0  0.79290  0.22885  0.54675  1.0000
  O   O42       1.0  0.72216  0.18053  0.58150  1.0000
  O   O43       1.0  0.57164  0.25318  0.92051  1.0000
  C   C22       1.0  0.70710  0.27115  0.95325  1.0000
  O   O44       1.0  0.77784  0.31947  0.91850  1.0000
  O   O45       1.0  0.42836  0.74682  0.57949  1.0000
  C   C23       1.0  0.29290  0.72885  0.54675  1.0000
  O   O46       1.0  0.22216  0.68053  0.58150  1.0000
  O   O47       1.0  0.07164  0.75318  0.92051  1.0000
  C   C24       1.0  0.20710  0.77115  0.95325  1.0000
  O   O48       1.0  0.27784  0.81947  0.91850  1.0000
  Zn  Zn5       1.0  0.00000  0.33387  0.50000  1.0000
  Zn  Zn6       1.0  0.50000  0.83387  0.50000  1.0000
  Zn  Zn7       1.0  0.00000  0.66613  0.50000  1.0000
  Zn  Zn8       1.0  0.50000  0.16613  0.50000  1.0000
