data_image0
_chemical_formula_structural       C6O4H4N2C6HO4H3N2HC3NC3O4HNH2O3H3OC6HN2CN2CO4H4C4N2C6HOHO2H2ON2C6O3H4O2N2C6H2O2H2OC2O4C2O4C2O4C2O4Nd8
_chemical_formula_sum              "C56 O48 H32 N16 Nd8"
_cell_length_a       10.3246
_cell_length_b       11.3359
_cell_length_c       22.316
_cell_angle_alpha    90
_cell_angle_beta     97.29
_cell_angle_gamma    90

_space_group_name_H-M_alt    "P 1"
_space_group_IT_number       1

loop_
  _space_group_symop_operation_xyz
  'x, y, z'

loop_
  _atom_site_type_symbol
  _atom_site_label
  _atom_site_symmetry_multiplicity
  _atom_site_fract_x
  _atom_site_fract_y
  _atom_site_fract_z
  _atom_site_occupancy
  C   C1        1.0  0.67380  0.35080  0.87670  1.0000
  C   C2        1.0  0.55150  0.37000  0.89380  1.0000
  C   C3        1.0  0.53730  0.34830  0.79530  1.0000
  C   C4        1.0  0.80500  0.34890  0.91280  1.0000
  C   C5        1.0  0.49390  0.38380  0.95130  1.0000
  C   C6        1.0  0.47530  0.33920  0.73090  1.0000
  O   O1        1.0  0.90010  0.32110  0.88456  1.0000
  O   O2        1.0  0.81980  0.37480  0.96764  1.0000
  O   O3        1.0  0.56270  0.36570  0.00123  1.0000
  O   O4        1.0  0.37550  0.41050  0.94561  1.0000
  H   H1        1.0  0.38460  0.37670  0.83830  1.0000
  H   H2        1.0  0.52060  0.28100  0.71020  1.0000
  H   H3        1.0  0.38550  0.31660  0.72990  1.0000
  H   H4        1.0  0.48030  0.41430  0.71140  1.0000
  N   N1        1.0  0.66290  0.33700  0.81550  1.0000
  N   N2        1.0  0.46780  0.36750  0.84140  1.0000
  C   C7        1.0  0.34720  0.64120  0.76160  1.0000
  C   C8        1.0  0.24200  0.56820  0.74720  1.0000
  C   C9        1.0  0.31240  0.63350  0.66400  1.0000
  C   C10       1.0  0.41820  0.68190  0.81960  1.0000
  C   C11       1.0  0.16070  0.48960  0.78200  1.0000
  C   C12       1.0  0.32020  0.64710  0.59820  1.0000
  H   H5        1.0  0.16370  0.52280  0.66470  1.0000
  O   O5        1.0  0.52190  0.73770  0.81785  1.0000
  O   O6        1.0  0.37510  0.65870  0.86840  1.0000
  O   O7        1.0  0.18540  0.48120  0.83817  1.0000
  O   O8        1.0  0.07360  0.43560  0.75031  1.0000
  H   H6        1.0  0.37840  0.58870  0.58560  1.0000
  H   H7        1.0  0.23490  0.63690  0.57610  1.0000
  H   H8        1.0  0.35230  0.72440  0.59060  1.0000
  N   N3        1.0  0.39050  0.68120  0.70910  1.0000
  N   N4        1.0  0.22290  0.56350  0.68600  1.0000
  H   H9        1.0  0.01970  0.91430  0.78860  1.0000
  C   C13       1.0  0.82620  0.85080  0.62330  1.0000
  C   C14       1.0  0.94850  0.87000  0.60620  1.0000
  C   C15       1.0  0.96270  0.84830  0.70470  1.0000
  N   N5        1.0  0.83710  0.83700  0.68450  1.0000
  C   C16       1.0  0.00610  0.88380  0.54870  1.0000
  C   C17       1.0  0.02470  0.83920  0.76910  1.0000
  C   C18       1.0  0.69500  0.84890  0.58720  1.0000
  O   O9        1.0  0.59990  0.82110  0.61544  1.0000
  O   O10       1.0  0.68020  0.87480  0.53236  1.0000
  O   O11       1.0  0.93730  0.86570  0.49877  1.0000
  O   O12       1.0  0.12450  0.91050  0.55439  1.0000
  H   H10       1.0  0.11540  0.87670  0.66170  1.0000
  N   N6        1.0  0.03220  0.86750  0.65860  1.0000
  H   H11       1.0  0.97940  0.78100  0.78980  1.0000
  H   H12       1.0  0.11450  0.81660  0.77010  1.0000
  O   O13       1.0  0.97810  0.23770  0.68215  1.0000
  O   O14       1.0  0.31460  0.98120  0.66183  1.0000
  O   O15       1.0  0.42640  0.93560  0.74969  1.0000
  H   H13       1.0  0.12160  0.08870  0.91440  1.0000
  H   H14       1.0  0.26510  0.13690  0.92390  1.0000
  H   H15       1.0  0.14770  0.22440  0.90940  1.0000
  O   O16       1.0  0.12490  0.15870  0.63160  1.0000
  C   C19       1.0  0.15280  0.14120  0.73840  1.0000
  C   C20       1.0  0.25800  0.06820  0.75280  1.0000
  C   C21       1.0  0.18760  0.13350  0.83600  1.0000
  C   C22       1.0  0.08180  0.18190  0.68040  1.0000
  C   C23       1.0  0.33930  0.98960  0.71800  1.0000
  C   C24       1.0  0.17980  0.14710  0.90180  1.0000
  H   H16       1.0  0.33630  0.02280  0.83530  1.0000
  N   N7        1.0  0.10950  0.18120  0.79090  1.0000
  N   N8        1.0  0.27710  0.06350  0.81400  1.0000
  C   C25       1.0  0.50610  0.61620  0.04870  1.0000
  N   N9        1.0  0.53220  0.63250  0.15860  1.0000
  N   N10       1.0  0.33710  0.66300  0.18450  1.0000
  C   C26       1.0  0.52470  0.66080  0.26910  1.0000
  O   O17       1.0  0.09990  0.67890  0.11544  1.0000
  O   O18       1.0  0.18020  0.62520  0.03236  1.0000
  O   O19       1.0  0.43730  0.63430  0.99877  1.0000
  O   O20       1.0  0.62450  0.58950  0.05439  1.0000
  H   H17       1.0  0.61540  0.62330  0.16170  1.0000
  H   H18       1.0  0.47940  0.71900  0.28980  1.0000
  H   H19       1.0  0.61450  0.68340  0.27010  1.0000
  H   H20       1.0  0.51970  0.58570  0.28860  1.0000
  C   C27       1.0  0.32620  0.64920  0.12330  1.0000
  C   C28       1.0  0.44850  0.63000  0.10620  1.0000
  C   C29       1.0  0.46270  0.65170  0.20470  1.0000
  C   C30       1.0  0.19500  0.65110  0.08720  1.0000
  N   N11       1.0  0.60950  0.31880  0.29090  1.0000
  N   N12       1.0  0.77710  0.43650  0.31400  1.0000
  C   C31       1.0  0.65280  0.35880  0.23840  1.0000
  C   C32       1.0  0.75800  0.43180  0.25280  1.0000
  C   C33       1.0  0.68760  0.36650  0.33600  1.0000
  C   C34       1.0  0.58180  0.31810  0.18040  1.0000
  C   C35       1.0  0.83930  0.51040  0.21800  1.0000
  C   C36       1.0  0.67980  0.35290  0.40180  1.0000
  H   H21       1.0  0.83630  0.47720  0.33530  1.0000
  O   O21       1.0  0.47810  0.26230  0.18215  1.0000
  H   H22       1.0  0.62160  0.41130  0.41440  1.0000
  O   O22       1.0  0.81460  0.51880  0.16183  1.0000
  O   O23       1.0  0.92640  0.56440  0.24969  1.0000
  H   H23       1.0  0.76510  0.36310  0.42390  1.0000
  H   H24       1.0  0.64770  0.27560  0.40940  1.0000
  O   O24       1.0  0.62490  0.34130  0.13160  1.0000
  N   N13       1.0  0.16290  0.16300  0.31550  1.0000
  N   N14       1.0  0.96780  0.13250  0.34140  1.0000
  C   C37       1.0  0.17380  0.14920  0.37670  1.0000
  C   C38       1.0  0.05150  0.13000  0.39380  1.0000
  C   C39       1.0  0.03730  0.15170  0.29530  1.0000
  C   C40       1.0  0.30500  0.15110  0.41280  1.0000
  C   C41       1.0  0.99390  0.11620  0.45130  1.0000
  C   C42       1.0  0.97530  0.16080  0.23090  1.0000
  O   O25       1.0  0.40010  0.17890  0.38456  1.0000
  O   O26       1.0  0.31980  0.12520  0.46764  1.0000
  O   O27       1.0  0.06270  0.13430  0.50123  1.0000
  H   H25       1.0  0.88460  0.12330  0.33830  1.0000
  H   H26       1.0  0.02060  0.21900  0.21020  1.0000
  H   H27       1.0  0.88550  0.18340  0.22990  1.0000
  H   H28       1.0  0.98030  0.08570  0.21140  1.0000
  O   O28       1.0  0.87550  0.08950  0.44561  1.0000
  O   O29       1.0  0.57360  0.06440  0.25031  1.0000
  N   N15       1.0  0.89050  0.81880  0.20910  1.0000
  N   N16       1.0  0.72290  0.93650  0.18600  1.0000
  C   C43       1.0  0.84720  0.85880  0.26160  1.0000
  C   C44       1.0  0.74200  0.93180  0.24720  1.0000
  C   C45       1.0  0.81240  0.86650  0.16400  1.0000
  C   C46       1.0  0.91820  0.81810  0.31960  1.0000
  C   C47       1.0  0.66070  0.01040  0.28200  1.0000
  C   C48       1.0  0.82020  0.85290  0.09820  1.0000
  H   H29       1.0  0.85230  0.77560  0.09060  1.0000
  H   H30       1.0  0.66370  0.97720  0.16470  1.0000
  O   O30       1.0  0.02190  0.76230  0.31785  1.0000
  O   O31       1.0  0.87510  0.84130  0.36840  1.0000
  H   H31       1.0  0.87840  0.91130  0.08560  1.0000
  H   H32       1.0  0.73490  0.86310  0.07610  1.0000
  O   O32       1.0  0.68540  0.01880  0.33817  1.0000
  C   C49       1.0  0.73560  0.54190  0.71500  1.0000
  C   C50       1.0  0.79580  0.58790  0.77690  1.0000
  O   O33       1.0  0.76810  0.44140  0.69893  1.0000
  O   O34       1.0  0.65780  0.60920  0.68428  1.0000
  O   O35       1.0  0.86830  0.51880  0.80961  1.0000
  O   O36       1.0  0.76890  0.69140  0.79047  1.0000
  C   C51       1.0  0.76440  0.04190  0.78500  1.0000
  C   C52       1.0  0.70420  0.08790  0.72310  1.0000
  O   O37       1.0  0.73190  0.94140  0.80107  1.0000
  O   O38       1.0  0.84220  0.10920  0.81572  1.0000
  O   O39       1.0  0.63170  0.01880  0.69039  1.0000
  O   O40       1.0  0.73110  0.19140  0.70953  1.0000
  C   C53       1.0  0.26440  0.45810  0.28500  1.0000
  C   C54       1.0  0.20420  0.41210  0.22310  1.0000
  O   O41       1.0  0.23190  0.55860  0.30107  1.0000
  O   O42       1.0  0.34220  0.39080  0.31572  1.0000
  O   O43       1.0  0.13170  0.48120  0.19039  1.0000
  O   O44       1.0  0.23110  0.30860  0.20953  1.0000
  C   C55       1.0  0.23560  0.95810  0.21500  1.0000
  C   C56       1.0  0.29580  0.91210  0.27690  1.0000
  O   O45       1.0  0.26810  0.05860  0.19893  1.0000
  O   O46       1.0  0.15780  0.89080  0.18428  1.0000
  O   O47       1.0  0.36830  0.98120  0.30961  1.0000
  O   O48       1.0  0.26890  0.80860  0.29047  1.0000
  Nd  Nd1       1.0  0.89090  0.30963  0.77457  1.0000
  Nd  Nd2       1.0  0.23839  0.58259  0.93550  1.0000
  Nd  Nd3       1.0  0.60910  0.80963  0.72543  1.0000
  Nd  Nd4       1.0  0.26161  0.08259  0.56450  1.0000
  Nd  Nd5       1.0  0.10910  0.69037  0.22543  1.0000
  Nd  Nd6       1.0  0.76161  0.41741  0.06450  1.0000
  Nd  Nd7       1.0  0.39090  0.19037  0.27457  1.0000
  Nd  Nd8       1.0  0.73839  0.91741  0.43550  1.0000
