data_image0
_chemical_formula_structural       O4H3N2HC10O4H2N2H2C8O4N2H4C6O3N2OH4CO2H4C5N2O5HCOH2NHNC11O3HOH3N2C6HO3H3ON2C2O4C2O4C2O4C2O4Eu8
_chemical_formula_sum              "O48 H32 N16 C56 Eu8"
_cell_length_a       10.2289
_cell_length_b       11.2526
_cell_length_c       22.1877
_cell_angle_alpha    90
_cell_angle_beta     96.967
_cell_angle_gamma    90

_space_group_name_H-M_alt    "P 1"
_space_group_IT_number       1

loop_
  _space_group_symop_operation_xyz
  'x, y, z'

loop_
  _atom_site_type_symbol
  _atom_site_label
  _atom_site_symmetry_multiplicity
  _atom_site_fract_x
  _atom_site_fract_y
  _atom_site_fract_z
  _atom_site_occupancy
  O   O1        1.0  0.81370  0.51410  0.65947  1.0000
  O   O2        1.0  0.92850  0.56150  0.74823  1.0000
  O   O3        1.0  0.62170  0.33850  0.63069  1.0000
  O   O4        1.0  0.47630  0.25500  0.68221  1.0000
  H   H1        1.0  0.83880  0.47100  0.83500  1.0000
  H   H2        1.0  0.72640  0.41170  0.92400  1.0000
  H   H3        1.0  0.58810  0.35130  0.90940  1.0000
  N   N1        1.0  0.60660  0.31510  0.79100  1.0000
  N   N2        1.0  0.77760  0.43170  0.81358  1.0000
  H   H4        1.0  0.71630  0.27370  0.91530  1.0000
  C   C1        1.0  0.84060  0.50560  0.71620  1.0000
  C   C2        1.0  0.75720  0.42820  0.75160  1.0000
  C   C3        1.0  0.65120  0.35420  0.73790  1.0000
  C   C4        1.0  0.57930  0.31390  0.67940  1.0000
  C   C5        1.0  0.68650  0.36360  0.83570  1.0000
  C   C6        1.0  0.67860  0.34870  0.90200  1.0000
  C   C7        1.0  0.44960  0.62900  0.60600  1.0000
  C   C8        1.0  0.50730  0.61460  0.54810  1.0000
  C   C9        1.0  0.46340  0.65040  0.70550  1.0000
  C   C10       1.0  0.52530  0.65620  0.77010  1.0000
  O   O5        1.0  0.09760  0.67660  0.61639  1.0000
  O   O6        1.0  0.17960  0.62860  0.53214  1.0000
  O   O7        1.0  0.43980  0.63540  0.49869  1.0000
  O   O8        1.0  0.62690  0.58610  0.55374  1.0000
  H   H5        1.0  0.61700  0.61890  0.66220  1.0000
  H   H6        1.0  0.51890  0.57990  0.78890  1.0000
  N   N3        1.0  0.33620  0.66080  0.68557  1.0000
  N   N4        1.0  0.53320  0.62980  0.65913  1.0000
  H   H7        1.0  0.61640  0.67790  0.77130  1.0000
  H   H8        1.0  0.48040  0.71450  0.79160  1.0000
  C   C11       1.0  0.19380  0.65180  0.58747  1.0000
  C   C12       1.0  0.32660  0.64800  0.62310  1.0000
  C   C13       1.0  0.65940  0.00560  0.78380  1.0000
  C   C14       1.0  0.74280  0.92820  0.74840  1.0000
  C   C15       1.0  0.84880  0.85420  0.76210  1.0000
  C   C16       1.0  0.92070  0.81390  0.82060  1.0000
  C   C17       1.0  0.81350  0.86360  0.66430  1.0000
  C   C18       1.0  0.82140  0.84870  0.59800  1.0000
  O   O9        1.0  0.68630  0.01410  0.84053  1.0000
  O   O10       1.0  0.57150  0.06150  0.75177  1.0000
  O   O11       1.0  0.87830  0.83850  0.86931  1.0000
  O   O12       1.0  0.02370  0.75500  0.81779  1.0000
  N   N5        1.0  0.89340  0.81510  0.70900  1.0000
  N   N6        1.0  0.72240  0.93170  0.68642  1.0000
  H   H9        1.0  0.66120  0.97100  0.66500  1.0000
  H   H10       1.0  0.77360  0.91170  0.57600  1.0000
  H   H11       1.0  0.91190  0.85130  0.59060  1.0000
  H   H12       1.0  0.78370  0.77370  0.58470  1.0000
  C   C19       1.0  0.30620  0.15180  0.91253  1.0000
  C   C20       1.0  0.17340  0.14800  0.87690  1.0000
  C   C21       1.0  0.05040  0.12900  0.89400  1.0000
  C   C22       1.0  0.99270  0.11460  0.95190  1.0000
  C   C23       1.0  0.03660  0.15040  0.79450  1.0000
  C   C24       1.0  0.97470  0.15620  0.72990  1.0000
  O   O13       1.0  0.40240  0.17660  0.88361  1.0000
  O   O14       1.0  0.32040  0.12860  0.96786  1.0000
  O   O15       1.0  0.06020  0.13540  0.00131  1.0000
  N   N7        1.0  0.16380  0.16080  0.81443  1.0000
  N   N8        1.0  0.96680  0.12980  0.84087  1.0000
  O   O16       1.0  0.87310  0.08610  0.94626  1.0000
  H   H13       1.0  0.88300  0.11890  0.83780  1.0000
  H   H14       1.0  0.98110  0.07990  0.71110  1.0000
  H   H15       1.0  0.88360  0.17790  0.72870  1.0000
  H   H16       1.0  0.01960  0.21450  0.70840  1.0000
  C   C25       1.0  0.32140  0.65130  0.09800  1.0000
  O   O17       1.0  0.52370  0.74500  0.31779  1.0000
  O   O18       1.0  0.37830  0.66150  0.36931  1.0000
  H   H17       1.0  0.16120  0.52900  0.16500  1.0000
  H   H18       1.0  0.27360  0.58830  0.07600  1.0000
  H   H19       1.0  0.41190  0.64870  0.09060  1.0000
  H   H20       1.0  0.28370  0.72630  0.08470  1.0000
  C   C26       1.0  0.15940  0.49440  0.28380  1.0000
  C   C27       1.0  0.24280  0.57180  0.24840  1.0000
  C   C28       1.0  0.34880  0.64580  0.26210  1.0000
  C   C29       1.0  0.42070  0.68610  0.32060  1.0000
  C   C30       1.0  0.31350  0.63640  0.16430  1.0000
  N   N9        1.0  0.22240  0.56830  0.18642  1.0000
  N   N10       1.0  0.39340  0.68490  0.20900  1.0000
  O   O19       1.0  0.18630  0.48590  0.34053  1.0000
  O   O20       1.0  0.07150  0.43850  0.25177  1.0000
  O   O21       1.0  0.90240  0.32340  0.38361  1.0000
  O   O22       1.0  0.82040  0.37140  0.46786  1.0000
  O   O23       1.0  0.56020  0.36460  0.50131  1.0000
  H   H21       1.0  0.38300  0.38110  0.33780  1.0000
  C   C31       1.0  0.80620  0.34820  0.41253  1.0000
  O   O24       1.0  0.37310  0.41390  0.44626  1.0000
  H   H22       1.0  0.48110  0.42010  0.21110  1.0000
  H   H23       1.0  0.38360  0.32210  0.22870  1.0000
  N   N11       1.0  0.46680  0.37020  0.34087  1.0000
  H   H24       1.0  0.51960  0.28550  0.20840  1.0000
  N   N12       1.0  0.66380  0.33920  0.31443  1.0000
  C   C32       1.0  0.67340  0.35200  0.37690  1.0000
  C   C33       1.0  0.55040  0.37100  0.39400  1.0000
  C   C34       1.0  0.49270  0.38540  0.45190  1.0000
  C   C35       1.0  0.53660  0.34960  0.29450  1.0000
  C   C36       1.0  0.47470  0.34380  0.22990  1.0000
  C   C37       1.0  0.34060  0.99440  0.21620  1.0000
  C   C38       1.0  0.25720  0.07180  0.25160  1.0000
  C   C39       1.0  0.15120  0.14580  0.23790  1.0000
  C   C40       1.0  0.07930  0.18610  0.17940  1.0000
  C   C41       1.0  0.18650  0.13640  0.33570  1.0000
  C   C42       1.0  0.17860  0.15130  0.40200  1.0000
  O   O25       1.0  0.31370  0.98590  0.15947  1.0000
  O   O26       1.0  0.42850  0.93850  0.24823  1.0000
  O   O27       1.0  0.12170  0.16150  0.13069  1.0000
  H   H25       1.0  0.33880  0.02900  0.33500  1.0000
  O   O28       1.0  0.97630  0.24500  0.18221  1.0000
  H   H26       1.0  0.22640  0.08830  0.42400  1.0000
  H   H27       1.0  0.08810  0.14870  0.40940  1.0000
  H   H28       1.0  0.21630  0.22630  0.41530  1.0000
  N   N13       1.0  0.10660  0.18490  0.29100  1.0000
  N   N14       1.0  0.27760  0.06830  0.31358  1.0000
  C   C43       1.0  0.69380  0.84820  0.08747  1.0000
  C   C44       1.0  0.82660  0.85200  0.12310  1.0000
  C   C45       1.0  0.94960  0.87100  0.10600  1.0000
  C   C46       1.0  0.00730  0.88540  0.04810  1.0000
  C   C47       1.0  0.96340  0.84960  0.20550  1.0000
  C   C48       1.0  0.02530  0.84380  0.27010  1.0000
  H   H29       1.0  0.11700  0.88110  0.16220  1.0000
  O   O29       1.0  0.59760  0.82340  0.11639  1.0000
  O   O30       1.0  0.93980  0.86460  0.99869  1.0000
  O   O31       1.0  0.12690  0.91390  0.05374  1.0000
  H   H30       1.0  0.01890  0.92010  0.28890  1.0000
  H   H31       1.0  0.11640  0.82210  0.27130  1.0000
  H   H32       1.0  0.98040  0.78550  0.29160  1.0000
  O   O32       1.0  0.67960  0.87140  0.03214  1.0000
  N   N15       1.0  0.83620  0.83920  0.18557  1.0000
  N   N16       1.0  0.03320  0.87020  0.15913  1.0000
  C   C49       1.0  0.26310  0.45470  0.78510  1.0000
  C   C50       1.0  0.20420  0.40890  0.72180  1.0000
  O   O33       1.0  0.34040  0.38610  0.81614  1.0000
  O   O34       1.0  0.22890  0.55650  0.80049  1.0000
  O   O35       1.0  0.23150  0.30420  0.70855  1.0000
  O   O36       1.0  0.13260  0.47890  0.68900  1.0000
  C   C51       1.0  0.23690  0.95470  0.71490  1.0000
  C   C52       1.0  0.29580  0.90890  0.77820  1.0000
  O   O37       1.0  0.15960  0.88610  0.68386  1.0000
  O   O38       1.0  0.27110  0.05650  0.69951  1.0000
  O   O39       1.0  0.26850  0.80420  0.79145  1.0000
  O   O40       1.0  0.36740  0.97890  0.81100  1.0000
  C   C53       1.0  0.73690  0.54530  0.21490  1.0000
  C   C54       1.0  0.79580  0.59110  0.27820  1.0000
  O   O41       1.0  0.65960  0.61390  0.18386  1.0000
  O   O42       1.0  0.77110  0.44350  0.19951  1.0000
  O   O43       1.0  0.76850  0.69580  0.29145  1.0000
  O   O44       1.0  0.86740  0.52110  0.31100  1.0000
  C   C55       1.0  0.76310  0.04530  0.28510  1.0000
  C   C56       1.0  0.70420  0.09110  0.22180  1.0000
  O   O45       1.0  0.84040  0.11390  0.31614  1.0000
  O   O46       1.0  0.72890  0.94350  0.30049  1.0000
  O   O47       1.0  0.73150  0.19580  0.20855  1.0000
  O   O48       1.0  0.63260  0.02110  0.18900  1.0000
  Eu  Eu1       1.0  0.75954  0.41311  0.56396  1.0000
  Eu  Eu2       1.0  0.11046  0.68690  0.72557  1.0000
  Eu  Eu3       1.0  0.74046  0.91311  0.93604  1.0000
  Eu  Eu4       1.0  0.38954  0.18690  0.77443  1.0000
  Eu  Eu5       1.0  0.24046  0.58689  0.43604  1.0000
  Eu  Eu6       1.0  0.88954  0.31310  0.27443  1.0000
  Eu  Eu7       1.0  0.25954  0.08689  0.06396  1.0000
  Eu  Eu8       1.0  0.61046  0.81310  0.22557  1.0000
