data_image0
_chemical_formula_structural       N2HC6H3O4N2H4C6O5N2O3H4C10N2O4H4C5NCNC2O4H4ON2C6O3H5O2H3O2N2C6HO2H3O2N2C8O7C2OC2O5C2O3Sm8
_chemical_formula_sum              "N16 H32 C56 O48 Sm8"
_cell_length_a       10.255
_cell_length_b       11.268
_cell_length_c       22.194
_cell_angle_alpha    90
_cell_angle_beta     97.061
_cell_angle_gamma    90

_space_group_name_H-M_alt    "P 1"
_space_group_IT_number       1

loop_
  _space_group_symop_operation_xyz
  'x, y, z'

loop_
  _atom_site_type_symbol
  _atom_site_label
  _atom_site_symmetry_multiplicity
  _atom_site_fract_x
  _atom_site_fract_y
  _atom_site_fract_z
  _atom_site_occupancy
  N   N1        1.0  0.89280  0.81710  0.70940  1.0000
  N   N2        1.0  0.72230  0.93340  0.68650  1.0000
  H   H1        1.0  0.66270  0.97410  0.66500  1.0000
  C   C1        1.0  0.66000  0.00730  0.78360  1.0000
  C   C2        1.0  0.74050  0.92970  0.74770  1.0000
  C   C3        1.0  0.81190  0.86360  0.66420  1.0000
  C   C4        1.0  0.81980  0.84840  0.59830  1.0000
  C   C5        1.0  0.85010  0.85590  0.76180  1.0000
  C   C6        1.0  0.91940  0.81500  0.82030  1.0000
  H   H2        1.0  0.89050  0.79530  0.59270  1.0000
  H   H3        1.0  0.73860  0.81590  0.57910  1.0000
  H   H4        1.0  0.83520  0.92400  0.58060  1.0000
  O   O1        1.0  0.57230  0.06210  0.75180  1.0000
  O   O2        1.0  0.68630  0.01540  0.83980  1.0000
  O   O3        1.0  0.87570  0.84030  0.86890  1.0000
  O   O4        1.0  0.02450  0.75810  0.81760  1.0000
  N   N3        1.0  0.16320  0.16150  0.81530  1.0000
  N   N4        1.0  0.96820  0.13120  0.84080  1.0000
  H   H5        1.0  0.88460  0.12070  0.83800  1.0000
  H   H6        1.0  0.88270  0.14730  0.72890  1.0000
  H   H7        1.0  0.01230  0.09810  0.70740  1.0000
  H   H8        1.0  0.99370  0.23510  0.71490  1.0000
  C   C7        1.0  0.99290  0.11470  0.95150  1.0000
  C   C8        1.0  0.05090  0.13050  0.89360  1.0000
  C   C9        1.0  0.03550  0.15050  0.79370  1.0000
  C   C10       1.0  0.97600  0.15840  0.73090  1.0000
  C   C11       1.0  0.17380  0.14990  0.87700  1.0000
  C   C12       1.0  0.30620  0.15210  0.91270  1.0000
  O   O5        1.0  0.06140  0.13410  0.00150  1.0000
  O   O6        1.0  0.87460  0.08860  0.94560  1.0000
  O   O7        1.0  0.32030  0.12790  0.96780  1.0000
  O   O8        1.0  0.40230  0.17740  0.88380  1.0000
  O   O9        1.0  0.92770  0.56210  0.74820  1.0000
  N   N5        1.0  0.60720  0.31710  0.79060  1.0000
  N   N6        1.0  0.77770  0.43340  0.81350  1.0000
  O   O10       1.0  0.81370  0.51540  0.66020  1.0000
  O   O11       1.0  0.62430  0.34030  0.63110  1.0000
  O   O12       1.0  0.47550  0.25810  0.68240  1.0000
  H   H9        1.0  0.83730  0.47410  0.83500  1.0000
  H   H10       1.0  0.60950  0.29530  0.90730  1.0000
  H   H11       1.0  0.76140  0.31590  0.92090  1.0000
  H   H12       1.0  0.66480  0.42400  0.91940  1.0000
  C   C13       1.0  0.84000  0.50730  0.71640  1.0000
  C   C14       1.0  0.75950  0.42970  0.75230  1.0000
  C   C15       1.0  0.68810  0.36360  0.83580  1.0000
  C   C16       1.0  0.68020  0.34840  0.90170  1.0000
  C   C17       1.0  0.64990  0.35590  0.73820  1.0000
  C   C18       1.0  0.58060  0.31500  0.67970  1.0000
  C   C19       1.0  0.46450  0.65050  0.70630  1.0000
  C   C20       1.0  0.52400  0.65840  0.76910  1.0000
  C   C21       1.0  0.32620  0.64990  0.62300  1.0000
  C   C22       1.0  0.19380  0.65210  0.58730  1.0000
  N   N7        1.0  0.33680  0.66150  0.68470  1.0000
  N   N8        1.0  0.53180  0.63120  0.65920  1.0000
  O   O13       1.0  0.43860  0.63410  0.49850  1.0000
  O   O14       1.0  0.62540  0.58860  0.55440  1.0000
  O   O15       1.0  0.17970  0.62790  0.53220  1.0000
  O   O16       1.0  0.09770  0.67740  0.61620  1.0000
  H   H13       1.0  0.61540  0.62070  0.66200  1.0000
  H   H14       1.0  0.61730  0.64730  0.77110  1.0000
  H   H15       1.0  0.48770  0.59810  0.79260  1.0000
  H   H16       1.0  0.50630  0.73510  0.78510  1.0000
  C   C23       1.0  0.50710  0.61470  0.54850  1.0000
  C   C24       1.0  0.44910  0.63050  0.60640  1.0000
  C   C25       1.0  0.34000  0.99270  0.21640  1.0000
  C   C26       1.0  0.25950  0.07030  0.25230  1.0000
  C   C27       1.0  0.18810  0.13640  0.33580  1.0000
  N   N9        1.0  0.27770  0.06660  0.31350  1.0000
  C   C28       1.0  0.14990  0.14410  0.23820  1.0000
  N   N10       1.0  0.10720  0.18290  0.29060  1.0000
  C   C29       1.0  0.18020  0.15160  0.40170  1.0000
  C   C30       1.0  0.08060  0.18500  0.17970  1.0000
  O   O17       1.0  0.42770  0.93790  0.24820  1.0000
  O   O18       1.0  0.31370  0.98460  0.16020  1.0000
  O   O19       1.0  0.12430  0.15970  0.13110  1.0000
  O   O20       1.0  0.97550  0.24190  0.18240  1.0000
  H   H17       1.0  0.33730  0.02590  0.33500  1.0000
  H   H18       1.0  0.10950  0.20470  0.40730  1.0000
  H   H19       1.0  0.26140  0.18410  0.42090  1.0000
  H   H20       1.0  0.16480  0.07600  0.41940  1.0000
  O   O21       1.0  0.59770  0.82260  0.11620  1.0000
  N   N11       1.0  0.83680  0.83850  0.18470  1.0000
  N   N12       1.0  0.03180  0.86880  0.15920  1.0000
  C   C31       1.0  0.00710  0.88530  0.04850  1.0000
  C   C32       1.0  0.94910  0.86950  0.10640  1.0000
  C   C33       1.0  0.96450  0.84950  0.20630  1.0000
  C   C34       1.0  0.02400  0.84160  0.26910  1.0000
  C   C35       1.0  0.82620  0.85010  0.12300  1.0000
  C   C36       1.0  0.69380  0.84790  0.08730  1.0000
  O   O22       1.0  0.93860  0.86590  0.99850  1.0000
  O   O23       1.0  0.12540  0.91140  0.05440  1.0000
  O   O24       1.0  0.67970  0.87210  0.03220  1.0000
  H   H21       1.0  0.11540  0.87930  0.16200  1.0000
  H   H22       1.0  0.11730  0.85270  0.27110  1.0000
  H   H23       1.0  0.98770  0.90190  0.29260  1.0000
  H   H24       1.0  0.00630  0.76490  0.28510  1.0000
  H   H25       1.0  0.16270  0.52590  0.16500  1.0000
  O   O25       1.0  0.07230  0.43790  0.25180  1.0000
  O   O26       1.0  0.18630  0.48460  0.33980  1.0000
  H   H26       1.0  0.39050  0.70470  0.09270  1.0000
  H   H27       1.0  0.23860  0.68410  0.07910  1.0000
  H   H28       1.0  0.33520  0.57600  0.08060  1.0000
  O   O27       1.0  0.52450  0.74190  0.31760  1.0000
  O   O28       1.0  0.37570  0.65970  0.36890  1.0000
  N   N13       1.0  0.39280  0.68290  0.20940  1.0000
  N   N14       1.0  0.22230  0.56660  0.18650  1.0000
  C   C37       1.0  0.16000  0.49270  0.28360  1.0000
  C   C38       1.0  0.24050  0.57030  0.24770  1.0000
  C   C39       1.0  0.31190  0.63640  0.16420  1.0000
  C   C40       1.0  0.31980  0.65160  0.09830  1.0000
  C   C41       1.0  0.35010  0.64410  0.26180  1.0000
  C   C42       1.0  0.41940  0.68500  0.32030  1.0000
  H   H29       1.0  0.38460  0.37930  0.33800  1.0000
  O   O29       1.0  0.56140  0.36590  0.50150  1.0000
  O   O30       1.0  0.37460  0.41140  0.44560  1.0000
  H   H30       1.0  0.38270  0.35270  0.22890  1.0000
  H   H31       1.0  0.51230  0.40190  0.20740  1.0000
  H   H32       1.0  0.49370  0.26490  0.21490  1.0000
  O   O31       1.0  0.90230  0.32260  0.38380  1.0000
  O   O32       1.0  0.82030  0.37210  0.46780  1.0000
  N   N15       1.0  0.66320  0.33850  0.31530  1.0000
  N   N16       1.0  0.46820  0.36880  0.34080  1.0000
  C   C43       1.0  0.49290  0.38530  0.45150  1.0000
  C   C44       1.0  0.55090  0.36950  0.39360  1.0000
  C   C45       1.0  0.53550  0.34950  0.29370  1.0000
  C   C46       1.0  0.47600  0.34160  0.23090  1.0000
  C   C47       1.0  0.67380  0.35010  0.37700  1.0000
  C   C48       1.0  0.80620  0.34790  0.41270  1.0000
  C   C49       1.0  0.26520  0.45520  0.78560  1.0000
  C   C50       1.0  0.20420  0.40880  0.72250  1.0000
  O   O33       1.0  0.34130  0.38820  0.81580  1.0000
  O   O34       1.0  0.22830  0.55730  0.80070  1.0000
  O   O35       1.0  0.23080  0.30590  0.70900  1.0000
  O   O36       1.0  0.13300  0.47920  0.68960  1.0000
  O   O37       1.0  0.27170  0.05730  0.69930  1.0000
  O   O38       1.0  0.26920  0.80590  0.79100  1.0000
  O   O39       1.0  0.36700  0.97920  0.81040  1.0000
  C   C51       1.0  0.23480  0.95520  0.71440  1.0000
  C   C52       1.0  0.29580  0.90880  0.77750  1.0000
  O   O40       1.0  0.15870  0.88820  0.68420  1.0000
  C   C53       1.0  0.73480  0.54480  0.21440  1.0000
  C   C54       1.0  0.79580  0.59120  0.27750  1.0000
  O   O41       1.0  0.65870  0.61180  0.18420  1.0000
  O   O42       1.0  0.77170  0.44270  0.19930  1.0000
  O   O43       1.0  0.76920  0.69410  0.29100  1.0000
  O   O44       1.0  0.86700  0.52080  0.31040  1.0000
  O   O45       1.0  0.63300  0.02080  0.18960  1.0000
  C   C55       1.0  0.76520  0.04480  0.28560  1.0000
  C   C56       1.0  0.70420  0.09120  0.22250  1.0000
  O   O46       1.0  0.84130  0.11180  0.31580  1.0000
  O   O47       1.0  0.72830  0.94270  0.30070  1.0000
  O   O48       1.0  0.73080  0.19410  0.20900  1.0000
  Sm  Sm1       1.0  0.38992  0.18834  0.77449  1.0000
  Sm  Sm2       1.0  0.73977  0.91485  0.93583  1.0000
  Sm  Sm3       1.0  0.11008  0.68834  0.72551  1.0000
  Sm  Sm4       1.0  0.76023  0.41485  0.56417  1.0000
  Sm  Sm5       1.0  0.61008  0.81166  0.22551  1.0000
  Sm  Sm6       1.0  0.26023  0.08515  0.06417  1.0000
  Sm  Sm7       1.0  0.88992  0.31166  0.27449  1.0000
  Sm  Sm8       1.0  0.23977  0.58515  0.43583  1.0000
