data_image0
_chemical_formula_structural       C19N4O3SH11C19N4O3SH11C19N4O3SH11C14N4O3SH11C5Cl8Cu4C19N4O3SH11C19N4O3SH11C19N4O3SH11C14N4O3SH11C5Cl8Cu4
_chemical_formula_sum              "C152 N32 O24 S8 H88 Cl16 Cu8"
_cell_length_a       8.124
_cell_length_b       32.652
_cell_length_c       14.758
_cell_angle_alpha    90
_cell_angle_beta     93.14
_cell_angle_gamma    90

_space_group_name_H-M_alt    "P 1"
_space_group_IT_number       1

loop_
  _space_group_symop_operation_xyz
  'x, y, z'

loop_
  _atom_site_type_symbol
  _atom_site_label
  _atom_site_symmetry_multiplicity
  _atom_site_fract_x
  _atom_site_fract_y
  _atom_site_fract_z
  _atom_site_occupancy
  C   C1        1.0  0.26630  0.20048  0.21515  1.0000
  C   C2        1.0  0.36720  0.16770  0.23715  1.0000
  C   C3        1.0  0.31540  0.12859  0.21845  1.0000
  C   C4        1.0  0.15820  0.12311  0.17600  1.0000
  C   C5        1.0  0.06210  0.15794  0.15490  1.0000
  C   C6        1.0  0.67130  0.18970  0.05080  1.0000
  C   C7        1.0  0.59230  0.15340  0.02845  1.0000
  C   C8        1.0  0.66720  0.11680  0.04530  1.0000
  C   C9        1.0  0.82890  0.11683  0.08825  1.0000
  C   C10       1.0  0.89940  0.15504  0.11055  1.0000
  C   C11       1.0  0.08170  0.08491  0.15295  1.0000
  C   C12       1.0  0.92700  0.08183  0.11025  1.0000
  C   C13       1.0  0.02460  0.01886  0.13195  1.0000
  C   C14       1.0  0.04490  0.97403  0.13410  1.0000
  C   C15       1.0  0.20480  0.95980  0.15395  1.0000
  C   C16       1.0  0.23920  0.91820  0.16055  1.0000
  C   C17       1.0  0.11900  0.88959  0.13970  1.0000
  C   C18       1.0  0.96130  0.90323  0.11475  1.0000
  C   C19       1.0  0.92100  0.94461  0.11230  1.0000
  N   N1        1.0  0.11890  0.19644  0.17390  1.0000
  N   N2        1.0  0.82240  0.19104  0.09205  1.0000
  N   N3        1.0  0.13830  0.04536  0.16670  1.0000
  N   N4        1.0  0.89450  0.04096  0.09915  1.0000
  O   O1        1.0  0.69720  0.98657  0.01865  1.0000
  O   O2        1.0  0.65730  0.97331  0.17680  1.0000
  O   O3        1.0  0.62800  0.91845  0.06735  1.0000
  S   S1        1.0  0.70734  0.95607  0.09170  1.0000
  H   H1        1.0  0.29500  0.22570  0.22800  1.0000
  H   H2        1.0  0.45600  0.17200  0.27650  1.0000
  H   H3        1.0  0.37300  0.10360  0.23450  1.0000
  H   H4        1.0  0.82100  0.02800  0.04500  1.0000
  H   H5        1.0  0.62200  0.21360  0.04100  1.0000
  H   H6        1.0  0.48900  0.15360  0.49300  1.0000
  H   H7        1.0  0.62500  0.09300  0.03600  1.0000
  H   H8        1.0  0.28300  0.97570  0.16500  1.0000
  H   H9        1.0  0.33900  0.91000  0.16100  1.0000
  H   H10       1.0  0.14100  0.85780  0.13900  1.0000
  H   H11       1.0  0.87500  0.88190  0.10350  1.0000
  C   C20       1.0  0.73370  0.70048  0.03485  1.0000
  C   C21       1.0  0.63280  0.66770  0.01285  1.0000
  C   C22       1.0  0.68460  0.62859  0.03155  1.0000
  C   C23       1.0  0.84180  0.62311  0.07400  1.0000
  C   C24       1.0  0.93790  0.65794  0.09510  1.0000
  C   C25       1.0  0.32870  0.68970  0.19920  1.0000
  C   C26       1.0  0.40770  0.65340  0.22155  1.0000
  C   C27       1.0  0.33280  0.61680  0.20470  1.0000
  C   C28       1.0  0.17110  0.61683  0.16175  1.0000
  C   C29       1.0  0.10060  0.65504  0.13945  1.0000
  C   C30       1.0  0.91830  0.58491  0.09705  1.0000
  C   C31       1.0  0.07300  0.58183  0.13975  1.0000
  C   C32       1.0  0.97540  0.51886  0.11805  1.0000
  C   C33       1.0  0.95510  0.47403  0.11590  1.0000
  C   C34       1.0  0.79520  0.45980  0.09605  1.0000
  C   C35       1.0  0.76080  0.41820  0.08945  1.0000
  C   C36       1.0  0.88100  0.38959  0.11030  1.0000
  C   C37       1.0  0.03870  0.40323  0.13525  1.0000
  C   C38       1.0  0.07900  0.44461  0.13770  1.0000
  N   N5        1.0  0.88110  0.69644  0.07610  1.0000
  N   N6        1.0  0.17760  0.69104  0.15795  1.0000
  N   N7        1.0  0.86170  0.54536  0.08330  1.0000
  N   N8        1.0  0.10550  0.54096  0.15085  1.0000
  O   O4        1.0  0.30280  0.48657  0.23135  1.0000
  O   O5        1.0  0.34270  0.47331  0.07320  1.0000
  O   O6        1.0  0.37200  0.41845  0.18265  1.0000
  S   S2        1.0  0.29266  0.45607  0.15830  1.0000
  H   H12       1.0  0.70500  0.72570  0.02200  1.0000
  H   H13       1.0  0.54400  0.67200  0.47350  1.0000
  H   H14       1.0  0.62700  0.60360  0.01550  1.0000
  H   H15       1.0  0.17900  0.52800  0.20500  1.0000
  H   H16       1.0  0.37800  0.71360  0.20900  1.0000
  H   H17       1.0  0.51100  0.65360  0.25700  1.0000
  H   H18       1.0  0.37500  0.59300  0.21400  1.0000
  H   H19       1.0  0.71700  0.47570  0.08500  1.0000
  H   H20       1.0  0.66100  0.41000  0.08900  1.0000
  H   H21       1.0  0.85900  0.35780  0.11100  1.0000
  H   H22       1.0  0.12500  0.38190  0.14650  1.0000
  C   C39       1.0  0.73370  0.79952  0.28485  1.0000
  C   C40       1.0  0.63280  0.83230  0.26285  1.0000
  C   C41       1.0  0.68460  0.87141  0.28155  1.0000
  C   C42       1.0  0.84180  0.87689  0.32400  1.0000
  C   C43       1.0  0.93790  0.84206  0.34510  1.0000
  C   C44       1.0  0.32870  0.81030  0.44920  1.0000
  C   C45       1.0  0.40770  0.84660  0.47155  1.0000
  C   C46       1.0  0.33280  0.88320  0.45470  1.0000
  C   C47       1.0  0.17110  0.88317  0.41175  1.0000
  C   C48       1.0  0.10060  0.84496  0.38945  1.0000
  C   C49       1.0  0.91830  0.91509  0.34705  1.0000
  C   C50       1.0  0.07300  0.91817  0.38975  1.0000
  C   C51       1.0  0.97540  0.98114  0.36805  1.0000
  C   C52       1.0  0.95510  0.02597  0.36590  1.0000
  C   C53       1.0  0.79520  0.04020  0.34605  1.0000
  C   C54       1.0  0.76080  0.08180  0.33945  1.0000
  C   C55       1.0  0.88100  0.11041  0.36030  1.0000
  C   C56       1.0  0.03870  0.09677  0.38525  1.0000
  C   C57       1.0  0.07900  0.05539  0.38770  1.0000
  N   N9        1.0  0.88110  0.80356  0.32610  1.0000
  N   N10       1.0  0.17760  0.80896  0.40795  1.0000
  N   N11       1.0  0.86170  0.95464  0.33330  1.0000
  N   N12       1.0  0.10550  0.95904  0.40085  1.0000
  O   O7        1.0  0.30280  0.01343  0.48135  1.0000
  O   O8        1.0  0.34270  0.02669  0.32320  1.0000
  O   O9        1.0  0.37200  0.08155  0.43265  1.0000
  S   S3        1.0  0.29266  0.04393  0.40830  1.0000
  H   H23       1.0  0.70500  0.77430  0.27200  1.0000
  H   H24       1.0  0.54400  0.82800  0.22350  1.0000
  H   H25       1.0  0.62700  0.89640  0.26550  1.0000
  H   H26       1.0  0.17900  0.97200  0.45500  1.0000
  H   H27       1.0  0.37800  0.78640  0.45900  1.0000
  H   H28       1.0  0.51100  0.84640  0.00700  1.0000
  H   H29       1.0  0.37500  0.90700  0.46400  1.0000
  H   H30       1.0  0.71700  0.02430  0.33500  1.0000
  H   H31       1.0  0.66100  0.09000  0.33900  1.0000
  H   H32       1.0  0.85900  0.14220  0.36100  1.0000
  H   H33       1.0  0.12500  0.11810  0.39650  1.0000
  C   C58       1.0  0.67130  0.31030  0.30080  1.0000
  C   C59       1.0  0.59230  0.34660  0.27845  1.0000
  C   C60       1.0  0.66720  0.38320  0.29530  1.0000
  C   C61       1.0  0.82890  0.38317  0.33825  1.0000
  C   C62       1.0  0.89940  0.34496  0.36055  1.0000
  C   C63       1.0  0.08170  0.41509  0.40295  1.0000
  C   C64       1.0  0.92700  0.41817  0.36025  1.0000
  C   C65       1.0  0.02460  0.48114  0.38195  1.0000
  C   C66       1.0  0.04490  0.52597  0.38410  1.0000
  C   C67       1.0  0.20480  0.54020  0.40395  1.0000
  C   C68       1.0  0.23920  0.58180  0.41055  1.0000
  C   C69       1.0  0.11900  0.61041  0.38970  1.0000
  C   C70       1.0  0.96130  0.59677  0.36475  1.0000
  C   C71       1.0  0.92100  0.55539  0.36230  1.0000
  N   N13       1.0  0.11890  0.30356  0.42390  1.0000
  N   N14       1.0  0.82240  0.30896  0.34205  1.0000
  N   N15       1.0  0.13830  0.45464  0.41670  1.0000
  N   N16       1.0  0.89450  0.45904  0.34915  1.0000
  O   O10       1.0  0.69720  0.51343  0.26865  1.0000
  O   O11       1.0  0.65730  0.52669  0.42680  1.0000
  O   O12       1.0  0.62800  0.58155  0.31735  1.0000
  S   S4        1.0  0.70734  0.54393  0.34170  1.0000
  H   H34       1.0  0.29500  0.27430  0.47800  1.0000
  H   H35       1.0  0.45600  0.32800  0.02650  1.0000
  H   H36       1.0  0.37300  0.39640  0.48450  1.0000
  H   H37       1.0  0.82100  0.47200  0.29500  1.0000
  H   H38       1.0  0.62200  0.28640  0.29100  1.0000
  H   H39       1.0  0.48900  0.34640  0.24300  1.0000
  H   H40       1.0  0.62500  0.40700  0.28600  1.0000
  H   H41       1.0  0.28300  0.52430  0.41500  1.0000
  H   H42       1.0  0.33900  0.59000  0.41100  1.0000
  H   H43       1.0  0.14100  0.64220  0.38900  1.0000
  H   H44       1.0  0.87500  0.61810  0.35350  1.0000
  C   C72       1.0  0.26630  0.29952  0.46515  1.0000
  C   C73       1.0  0.36720  0.33230  0.48715  1.0000
  C   C74       1.0  0.31540  0.37141  0.46845  1.0000
  C   C75       1.0  0.15820  0.37689  0.42600  1.0000
  C   C76       1.0  0.06210  0.34206  0.40490  1.0000
  Cl  Cl1       1.0  0.78060  0.28367  0.05610  1.0000
  Cl  Cl2       1.0  0.11560  0.29136  0.18965  1.0000
  Cl  Cl3       1.0  0.21940  0.78367  0.19390  1.0000
  Cl  Cl4       1.0  0.88440  0.79136  0.06035  1.0000
  Cl  Cl5       1.0  0.21940  0.71633  0.44390  1.0000
  Cl  Cl6       1.0  0.88440  0.70864  0.31035  1.0000
  Cl  Cl7       1.0  0.78060  0.21633  0.30610  1.0000
  Cl  Cl8       1.0  0.11560  0.20864  0.43965  1.0000
  Cu  Cu1       1.0  0.95686  0.25928  0.38059  1.0000
  Cu  Cu2       1.0  0.95686  0.24072  0.13059  1.0000
  Cu  Cu3       1.0  0.04314  0.74072  0.11941  1.0000
  Cu  Cu4       1.0  0.04314  0.75928  0.36941  1.0000
  C   C77       1.0  0.26630  0.20048  0.71515  1.0000
  C   C78       1.0  0.36720  0.16770  0.73715  1.0000
  C   C79       1.0  0.31540  0.12859  0.71845  1.0000
  C   C80       1.0  0.15820  0.12311  0.67600  1.0000
  C   C81       1.0  0.06210  0.15794  0.65490  1.0000
  C   C82       1.0  0.67130  0.18970  0.55080  1.0000
  C   C83       1.0  0.59230  0.15340  0.52845  1.0000
  C   C84       1.0  0.66720  0.11680  0.54530  1.0000
  C   C85       1.0  0.82890  0.11683  0.58825  1.0000
  C   C86       1.0  0.89940  0.15504  0.61055  1.0000
  C   C87       1.0  0.08170  0.08491  0.65295  1.0000
  C   C88       1.0  0.92700  0.08183  0.61025  1.0000
  C   C89       1.0  0.02460  0.01886  0.63195  1.0000
  C   C90       1.0  0.04490  0.97403  0.63410  1.0000
  C   C91       1.0  0.20480  0.95980  0.65395  1.0000
  C   C92       1.0  0.23920  0.91820  0.66055  1.0000
  C   C93       1.0  0.11900  0.88959  0.63970  1.0000
  C   C94       1.0  0.96130  0.90323  0.61475  1.0000
  C   C95       1.0  0.92100  0.94461  0.61230  1.0000
  N   N17       1.0  0.11890  0.19644  0.67390  1.0000
  N   N18       1.0  0.82240  0.19104  0.59205  1.0000
  N   N19       1.0  0.13830  0.04536  0.66670  1.0000
  N   N20       1.0  0.89450  0.04096  0.59915  1.0000
  O   O13       1.0  0.69720  0.98657  0.51865  1.0000
  O   O14       1.0  0.65730  0.97331  0.67680  1.0000
  O   O15       1.0  0.62800  0.91845  0.56735  1.0000
  S   S5        1.0  0.70734  0.95607  0.59170  1.0000
  H   H45       1.0  0.29500  0.22570  0.72800  1.0000
  H   H46       1.0  0.45600  0.17200  0.77650  1.0000
  H   H47       1.0  0.37300  0.10360  0.73450  1.0000
  H   H48       1.0  0.82100  0.02800  0.54500  1.0000
  H   H49       1.0  0.62200  0.21360  0.54100  1.0000
  H   H50       1.0  0.48900  0.15360  0.99300  1.0000
  H   H51       1.0  0.62500  0.09300  0.53600  1.0000
  H   H52       1.0  0.28300  0.97570  0.66500  1.0000
  H   H53       1.0  0.33900  0.91000  0.66100  1.0000
  H   H54       1.0  0.14100  0.85780  0.63900  1.0000
  H   H55       1.0  0.87500  0.88190  0.60350  1.0000
  C   C96       1.0  0.73370  0.70048  0.53485  1.0000
  C   C97       1.0  0.63280  0.66770  0.51285  1.0000
  C   C98       1.0  0.68460  0.62859  0.53155  1.0000
  C   C99       1.0  0.84180  0.62311  0.57400  1.0000
  C   C100      1.0  0.93790  0.65794  0.59510  1.0000
  C   C101      1.0  0.32870  0.68970  0.69920  1.0000
  C   C102      1.0  0.40770  0.65340  0.72155  1.0000
  C   C103      1.0  0.33280  0.61680  0.70470  1.0000
  C   C104      1.0  0.17110  0.61683  0.66175  1.0000
  C   C105      1.0  0.10060  0.65504  0.63945  1.0000
  C   C106      1.0  0.91830  0.58491  0.59705  1.0000
  C   C107      1.0  0.07300  0.58183  0.63975  1.0000
  C   C108      1.0  0.97540  0.51886  0.61805  1.0000
  C   C109      1.0  0.95510  0.47403  0.61590  1.0000
  C   C110      1.0  0.79520  0.45980  0.59605  1.0000
  C   C111      1.0  0.76080  0.41820  0.58945  1.0000
  C   C112      1.0  0.88100  0.38959  0.61030  1.0000
  C   C113      1.0  0.03870  0.40323  0.63525  1.0000
  C   C114      1.0  0.07900  0.44461  0.63770  1.0000
  N   N21       1.0  0.88110  0.69644  0.57610  1.0000
  N   N22       1.0  0.17760  0.69104  0.65795  1.0000
  N   N23       1.0  0.86170  0.54536  0.58330  1.0000
  N   N24       1.0  0.10550  0.54096  0.65085  1.0000
  O   O16       1.0  0.30280  0.48657  0.73135  1.0000
  O   O17       1.0  0.34270  0.47331  0.57320  1.0000
  O   O18       1.0  0.37200  0.41845  0.68265  1.0000
  S   S6        1.0  0.29266  0.45607  0.65830  1.0000
  H   H56       1.0  0.70500  0.72570  0.52200  1.0000
  H   H57       1.0  0.54400  0.67200  0.97350  1.0000
  H   H58       1.0  0.62700  0.60360  0.51550  1.0000
  H   H59       1.0  0.17900  0.52800  0.70500  1.0000
  H   H60       1.0  0.37800  0.71360  0.70900  1.0000
  H   H61       1.0  0.51100  0.65360  0.75700  1.0000
  H   H62       1.0  0.37500  0.59300  0.71400  1.0000
  H   H63       1.0  0.71700  0.47570  0.58500  1.0000
  H   H64       1.0  0.66100  0.41000  0.58900  1.0000
  H   H65       1.0  0.85900  0.35780  0.61100  1.0000
  H   H66       1.0  0.12500  0.38190  0.64650  1.0000
  C   C115      1.0  0.73370  0.79952  0.78485  1.0000
  C   C116      1.0  0.63280  0.83230  0.76285  1.0000
  C   C117      1.0  0.68460  0.87141  0.78155  1.0000
  C   C118      1.0  0.84180  0.87689  0.82400  1.0000
  C   C119      1.0  0.93790  0.84206  0.84510  1.0000
  C   C120      1.0  0.32870  0.81030  0.94920  1.0000
  C   C121      1.0  0.40770  0.84660  0.97155  1.0000
  C   C122      1.0  0.33280  0.88320  0.95470  1.0000
  C   C123      1.0  0.17110  0.88317  0.91175  1.0000
  C   C124      1.0  0.10060  0.84496  0.88945  1.0000
  C   C125      1.0  0.91830  0.91509  0.84705  1.0000
  C   C126      1.0  0.07300  0.91817  0.88975  1.0000
  C   C127      1.0  0.97540  0.98114  0.86805  1.0000
  C   C128      1.0  0.95510  0.02597  0.86590  1.0000
  C   C129      1.0  0.79520  0.04020  0.84605  1.0000
  C   C130      1.0  0.76080  0.08180  0.83945  1.0000
  C   C131      1.0  0.88100  0.11041  0.86030  1.0000
  C   C132      1.0  0.03870  0.09677  0.88525  1.0000
  C   C133      1.0  0.07900  0.05539  0.88770  1.0000
  N   N25       1.0  0.88110  0.80356  0.82610  1.0000
  N   N26       1.0  0.17760  0.80896  0.90795  1.0000
  N   N27       1.0  0.86170  0.95464  0.83330  1.0000
  N   N28       1.0  0.10550  0.95904  0.90085  1.0000
  O   O19       1.0  0.30280  0.01343  0.98135  1.0000
  O   O20       1.0  0.34270  0.02669  0.82320  1.0000
  O   O21       1.0  0.37200  0.08155  0.93265  1.0000
  S   S7        1.0  0.29266  0.04393  0.90830  1.0000
  H   H67       1.0  0.70500  0.77430  0.77200  1.0000
  H   H68       1.0  0.54400  0.82800  0.72350  1.0000
  H   H69       1.0  0.62700  0.89640  0.76550  1.0000
  H   H70       1.0  0.17900  0.97200  0.95500  1.0000
  H   H71       1.0  0.37800  0.78640  0.95900  1.0000
  H   H72       1.0  0.51100  0.84640  0.50700  1.0000
  H   H73       1.0  0.37500  0.90700  0.96400  1.0000
  H   H74       1.0  0.71700  0.02430  0.83500  1.0000
  H   H75       1.0  0.66100  0.09000  0.83900  1.0000
  H   H76       1.0  0.85900  0.14220  0.86100  1.0000
  H   H77       1.0  0.12500  0.11810  0.89650  1.0000
  C   C134      1.0  0.67130  0.31030  0.80080  1.0000
  C   C135      1.0  0.59230  0.34660  0.77845  1.0000
  C   C136      1.0  0.66720  0.38320  0.79530  1.0000
  C   C137      1.0  0.82890  0.38317  0.83825  1.0000
  C   C138      1.0  0.89940  0.34496  0.86055  1.0000
  C   C139      1.0  0.08170  0.41509  0.90295  1.0000
  C   C140      1.0  0.92700  0.41817  0.86025  1.0000
  C   C141      1.0  0.02460  0.48114  0.88195  1.0000
  C   C142      1.0  0.04490  0.52597  0.88410  1.0000
  C   C143      1.0  0.20480  0.54020  0.90395  1.0000
  C   C144      1.0  0.23920  0.58180  0.91055  1.0000
  C   C145      1.0  0.11900  0.61041  0.88970  1.0000
  C   C146      1.0  0.96130  0.59677  0.86475  1.0000
  C   C147      1.0  0.92100  0.55539  0.86230  1.0000
  N   N29       1.0  0.11890  0.30356  0.92390  1.0000
  N   N30       1.0  0.82240  0.30896  0.84205  1.0000
  N   N31       1.0  0.13830  0.45464  0.91670  1.0000
  N   N32       1.0  0.89450  0.45904  0.84915  1.0000
  O   O22       1.0  0.69720  0.51343  0.76865  1.0000
  O   O23       1.0  0.65730  0.52669  0.92680  1.0000
  O   O24       1.0  0.62800  0.58155  0.81735  1.0000
  S   S8        1.0  0.70734  0.54393  0.84170  1.0000
  H   H78       1.0  0.29500  0.27430  0.97800  1.0000
  H   H79       1.0  0.45600  0.32800  0.52650  1.0000
  H   H80       1.0  0.37300  0.39640  0.98450  1.0000
  H   H81       1.0  0.82100  0.47200  0.79500  1.0000
  H   H82       1.0  0.62200  0.28640  0.79100  1.0000
  H   H83       1.0  0.48900  0.34640  0.74300  1.0000
  H   H84       1.0  0.62500  0.40700  0.78600  1.0000
  H   H85       1.0  0.28300  0.52430  0.91500  1.0000
  H   H86       1.0  0.33900  0.59000  0.91100  1.0000
  H   H87       1.0  0.14100  0.64220  0.88900  1.0000
  H   H88       1.0  0.87500  0.61810  0.85350  1.0000
  C   C148      1.0  0.26630  0.29952  0.96515  1.0000
  C   C149      1.0  0.36720  0.33230  0.98715  1.0000
  C   C150      1.0  0.31540  0.37141  0.96845  1.0000
  C   C151      1.0  0.15820  0.37689  0.92600  1.0000
  C   C152      1.0  0.06210  0.34206  0.90490  1.0000
  Cl  Cl9       1.0  0.78060  0.28367  0.55610  1.0000
  Cl  Cl10      1.0  0.11560  0.29136  0.68965  1.0000
  Cl  Cl11      1.0  0.21940  0.78367  0.69390  1.0000
  Cl  Cl12      1.0  0.88440  0.79136  0.56035  1.0000
  Cl  Cl13      1.0  0.21940  0.71633  0.94390  1.0000
  Cl  Cl14      1.0  0.88440  0.70864  0.81035  1.0000
  Cl  Cl15      1.0  0.78060  0.21633  0.80610  1.0000
  Cl  Cl16      1.0  0.11560  0.20864  0.93965  1.0000
  Cu  Cu5       1.0  0.95686  0.25928  0.88059  1.0000
  Cu  Cu6       1.0  0.95686  0.24072  0.63059  1.0000
  Cu  Cu7       1.0  0.04314  0.74072  0.61941  1.0000
  Cu  Cu8       1.0  0.04314  0.75928  0.86941  1.0000
