data_image0
_chemical_formula_structural       C6O2H2C6O2H2C6O2H2C6O2H2C6O2H2C6O2H2C6O2H2C6O2H2C6O2H2C6O2H2C6O2H2C6O2H2C2O2H2C6O2H2C6O2H2C10O2H2C6O2H2C6O2H2C6O2H2C6O2H2C6O2H2C6O2H2C6O2H2C6O2H2Ti8
_chemical_formula_sum              "C144 O48 H48 Ti8"
_cell_length_a       17.996
_cell_length_b       17.996
_cell_length_c       17.996
_cell_angle_alpha    90
_cell_angle_beta     90
_cell_angle_gamma    90

_space_group_name_H-M_alt    "P 1"
_space_group_IT_number       1

loop_
  _space_group_symop_operation_xyz
  'x, y, z'

loop_
  _atom_site_type_symbol
  _atom_site_label
  _atom_site_symmetry_multiplicity
  _atom_site_fract_x
  _atom_site_fract_y
  _atom_site_fract_z
  _atom_site_occupancy
  C   C1        1.0  0.24919  0.55749  0.94459  1.0000
  C   C2        1.0  0.18915  0.59228  0.90749  1.0000
  C   C3        1.0  0.28168  0.58996  0.00771  1.0000
  C   C4        1.0  0.19539  0.69272  0.99869  1.0000
  C   C5        1.0  0.15818  0.65812  0.93860  1.0000
  C   C6        1.0  0.25845  0.66006  0.03109  1.0000
  O   O1        1.0  0.29891  0.69599  0.08687  1.0000
  O   O2        1.0  0.33737  0.55382  0.04811  1.0000
  H   H1        1.0  0.27186  0.50229  0.92332  1.0000
  H   H2        1.0  0.17424  0.74792  0.02147  1.0000
  C   C7        1.0  0.05541  0.74919  0.94251  1.0000
  C   C8        1.0  0.09251  0.68915  0.90772  1.0000
  C   C9        1.0  0.99229  0.78168  0.91004  1.0000
  C   C10       1.0  0.00131  0.69539  0.80728  1.0000
  C   C11       1.0  0.06140  0.65818  0.84188  1.0000
  C   C12       1.0  0.96891  0.75845  0.83994  1.0000
  O   O3        1.0  0.91313  0.79891  0.80401  1.0000
  O   O4        1.0  0.95189  0.83737  0.94618  1.0000
  H   H3        1.0  0.07668  0.77186  0.99771  1.0000
  H   H4        1.0  0.97853  0.67424  0.75208  1.0000
  C   C13       1.0  0.05749  0.55541  0.75081  1.0000
  C   C14       1.0  0.09228  0.59251  0.81085  1.0000
  C   C15       1.0  0.08996  0.49229  0.71832  1.0000
  C   C16       1.0  0.19272  0.50131  0.80461  1.0000
  C   C17       1.0  0.15812  0.56140  0.84182  1.0000
  C   C18       1.0  0.16006  0.46891  0.74155  1.0000
  O   O5        1.0  0.19599  0.41313  0.70109  1.0000
  O   O6        1.0  0.05382  0.45189  0.66263  1.0000
  H   H5        1.0  0.00229  0.57668  0.72814  1.0000
  H   H6        1.0  0.24792  0.47853  0.82576  1.0000
  C   C19       1.0  0.25081  0.44251  0.44459  1.0000
  C   C20       1.0  0.31085  0.40772  0.40749  1.0000
  C   C21       1.0  0.21832  0.41004  0.50771  1.0000
  C   C22       1.0  0.30461  0.30728  0.49869  1.0000
  C   C23       1.0  0.34182  0.34188  0.43860  1.0000
  C   C24       1.0  0.24155  0.33994  0.53109  1.0000
  O   O7        1.0  0.20109  0.30401  0.58687  1.0000
  O   O8        1.0  0.16263  0.44618  0.54811  1.0000
  H   H7        1.0  0.22814  0.49771  0.42332  1.0000
  H   H8        1.0  0.32576  0.25208  0.52147  1.0000
  C   C25       1.0  0.44459  0.25081  0.44251  1.0000
  C   C26       1.0  0.40749  0.31085  0.40772  1.0000
  C   C27       1.0  0.50771  0.21832  0.41004  1.0000
  C   C28       1.0  0.49869  0.30461  0.30728  1.0000
  C   C29       1.0  0.43860  0.34182  0.34188  1.0000
  C   C30       1.0  0.53109  0.24155  0.33994  1.0000
  O   O9        1.0  0.58687  0.20109  0.30401  1.0000
  O   O10       1.0  0.54811  0.16263  0.44618  1.0000
  H   H9        1.0  0.42332  0.22814  0.49771  1.0000
  H   H10       1.0  0.52147  0.32576  0.25208  1.0000
  C   C31       1.0  0.44251  0.44459  0.25081  1.0000
  C   C32       1.0  0.40772  0.40749  0.31085  1.0000
  C   C33       1.0  0.41004  0.50771  0.21832  1.0000
  C   C34       1.0  0.30728  0.49869  0.30461  1.0000
  C   C35       1.0  0.34188  0.43860  0.34182  1.0000
  C   C36       1.0  0.33994  0.53109  0.24155  1.0000
  O   O11       1.0  0.30401  0.58687  0.20109  1.0000
  O   O12       1.0  0.44618  0.54811  0.16263  1.0000
  H   H11       1.0  0.49771  0.42332  0.22814  1.0000
  H   H12       1.0  0.25208  0.52147  0.32576  1.0000
  C   C37       1.0  0.75081  0.05749  0.55541  1.0000
  C   C38       1.0  0.81085  0.09228  0.59251  1.0000
  C   C39       1.0  0.71832  0.08996  0.49229  1.0000
  C   C40       1.0  0.80461  0.19272  0.50131  1.0000
  C   C41       1.0  0.84182  0.15812  0.56140  1.0000
  C   C42       1.0  0.74155  0.16006  0.46891  1.0000
  O   O13       1.0  0.70109  0.19599  0.41313  1.0000
  O   O14       1.0  0.66263  0.05382  0.45189  1.0000
  H   H13       1.0  0.72814  0.00229  0.57668  1.0000
  H   H14       1.0  0.82576  0.24792  0.47853  1.0000
  C   C43       1.0  0.94459  0.24919  0.55749  1.0000
  C   C44       1.0  0.90749  0.18915  0.59228  1.0000
  C   C45       1.0  0.00771  0.28168  0.58996  1.0000
  C   C46       1.0  0.99869  0.19539  0.69272  1.0000
  C   C47       1.0  0.93860  0.15818  0.65812  1.0000
  C   C48       1.0  0.03109  0.25845  0.66006  1.0000
  O   O15       1.0  0.08687  0.29891  0.69599  1.0000
  O   O16       1.0  0.04811  0.33737  0.55382  1.0000
  H   H15       1.0  0.92332  0.27186  0.50229  1.0000
  H   H16       1.0  0.02147  0.17424  0.74792  1.0000
  C   C49       1.0  0.94251  0.05541  0.74919  1.0000
  C   C50       1.0  0.90772  0.09251  0.68915  1.0000
  C   C51       1.0  0.91004  0.99229  0.78168  1.0000
  C   C52       1.0  0.80728  0.00131  0.69539  1.0000
  C   C53       1.0  0.84188  0.06140  0.65818  1.0000
  C   C54       1.0  0.83994  0.96891  0.75845  1.0000
  O   O17       1.0  0.80401  0.91313  0.79891  1.0000
  O   O18       1.0  0.94618  0.95189  0.83737  1.0000
  H   H17       1.0  0.99771  0.07668  0.77186  1.0000
  H   H18       1.0  0.75208  0.97853  0.67424  1.0000
  C   C55       1.0  0.74919  0.94251  0.05541  1.0000
  C   C56       1.0  0.68915  0.90772  0.09251  1.0000
  C   C57       1.0  0.78168  0.91004  0.99229  1.0000
  C   C58       1.0  0.69539  0.80728  0.00131  1.0000
  C   C59       1.0  0.65818  0.84188  0.06140  1.0000
  C   C60       1.0  0.75845  0.83994  0.96891  1.0000
  O   O19       1.0  0.79891  0.80401  0.91313  1.0000
  O   O20       1.0  0.83737  0.94618  0.95189  1.0000
  H   H19       1.0  0.77186  0.99771  0.07668  1.0000
  H   H20       1.0  0.67424  0.75208  0.97853  1.0000
  C   C61       1.0  0.55541  0.75081  0.05749  1.0000
  C   C62       1.0  0.59251  0.81085  0.09228  1.0000
  C   C63       1.0  0.49229  0.71832  0.08996  1.0000
  C   C64       1.0  0.50131  0.80461  0.19272  1.0000
  C   C65       1.0  0.56140  0.84182  0.15812  1.0000
  C   C66       1.0  0.46891  0.74155  0.16006  1.0000
  O   O21       1.0  0.41313  0.70109  0.19599  1.0000
  O   O22       1.0  0.45189  0.66263  0.05382  1.0000
  H   H21       1.0  0.57668  0.72814  0.00229  1.0000
  H   H22       1.0  0.47853  0.82576  0.24792  1.0000
  C   C67       1.0  0.55749  0.94459  0.24919  1.0000
  C   C68       1.0  0.59228  0.90749  0.18915  1.0000
  C   C69       1.0  0.58996  0.00771  0.28168  1.0000
  C   C70       1.0  0.69272  0.99869  0.19539  1.0000
  C   C71       1.0  0.65812  0.93860  0.15818  1.0000
  C   C72       1.0  0.66006  0.03109  0.25845  1.0000
  O   O23       1.0  0.69599  0.08687  0.29891  1.0000
  O   O24       1.0  0.55382  0.04811  0.33737  1.0000
  H   H23       1.0  0.50229  0.92332  0.27186  1.0000
  H   H24       1.0  0.74792  0.02147  0.17424  1.0000
  C   C73       1.0  0.84185  0.34191  0.06136  1.0000
  C   C74       1.0  0.74158  0.33994  0.96889  1.0000
  O   O25       1.0  0.70112  0.30401  0.91311  1.0000
  O   O26       1.0  0.66265  0.44618  0.95186  1.0000
  H   H25       1.0  0.72816  0.49773  0.07664  1.0000
  H   H26       1.0  0.82581  0.25210  0.97851  1.0000
  C   C75       1.0  0.94463  0.25084  0.05747  1.0000
  C   C76       1.0  0.90753  0.31088  0.09225  1.0000
  C   C77       1.0  0.00775  0.21835  0.08995  1.0000
  C   C78       1.0  0.99871  0.30465  0.19271  1.0000
  C   C79       1.0  0.93864  0.34185  0.15809  1.0000
  C   C80       1.0  0.03111  0.24158  0.16006  1.0000
  O   O27       1.0  0.08689  0.20112  0.19599  1.0000
  O   O28       1.0  0.04814  0.16265  0.05382  1.0000
  H   H27       1.0  0.92336  0.22816  0.00227  1.0000
  H   H28       1.0  0.02149  0.32581  0.24790  1.0000
  C   C81       1.0  0.94253  0.44463  0.24916  1.0000
  C   C82       1.0  0.90775  0.40753  0.18912  1.0000
  C   C83       1.0  0.91005  0.50775  0.28165  1.0000
  C   C84       1.0  0.80729  0.49871  0.19535  1.0000
  C   C85       1.0  0.84191  0.43864  0.15815  1.0000
  C   C86       1.0  0.83994  0.53111  0.25842  1.0000
  O   O29       1.0  0.80401  0.58689  0.29888  1.0000
  O   O30       1.0  0.94618  0.54814  0.33735  1.0000
  H   H29       1.0  0.99773  0.42336  0.27184  1.0000
  H   H30       1.0  0.75210  0.52149  0.17419  1.0000
  C   C87       1.0  0.75084  0.44253  0.05537  1.0000
  C   C88       1.0  0.81088  0.40775  0.09247  1.0000
  C   C89       1.0  0.71835  0.41005  0.99225  1.0000
  C   C90       1.0  0.80465  0.30729  0.00129  1.0000
  C   C91       1.0  0.74916  0.55747  0.55537  1.0000
  C   C92       1.0  0.68912  0.59225  0.59247  1.0000
  C   C93       1.0  0.78165  0.58995  0.49225  1.0000
  C   C94       1.0  0.69535  0.69271  0.50129  1.0000
  C   C95       1.0  0.65815  0.65809  0.56136  1.0000
  C   C96       1.0  0.75842  0.66006  0.46889  1.0000
  O   O31       1.0  0.79888  0.69599  0.41311  1.0000
  O   O32       1.0  0.83735  0.55382  0.45186  1.0000
  H   H31       1.0  0.77184  0.50227  0.57664  1.0000
  H   H32       1.0  0.67419  0.74790  0.47851  1.0000
  C   C97       1.0  0.55537  0.74916  0.55747  1.0000
  C   C98       1.0  0.59247  0.68912  0.59225  1.0000
  C   C99       1.0  0.49225  0.78165  0.58995  1.0000
  C   C100      1.0  0.50129  0.69535  0.69271  1.0000
  C   C101      1.0  0.56136  0.65815  0.65809  1.0000
  C   C102      1.0  0.46889  0.75842  0.66006  1.0000
  O   O33       1.0  0.41311  0.79888  0.69599  1.0000
  O   O34       1.0  0.45186  0.83735  0.55382  1.0000
  H   H33       1.0  0.57664  0.77184  0.50227  1.0000
  H   H34       1.0  0.47851  0.67419  0.74790  1.0000
  C   C103      1.0  0.55747  0.55537  0.74916  1.0000
  C   C104      1.0  0.59225  0.59247  0.68912  1.0000
  C   C105      1.0  0.58995  0.49225  0.78165  1.0000
  C   C106      1.0  0.69271  0.50129  0.69535  1.0000
  C   C107      1.0  0.65809  0.56136  0.65815  1.0000
  C   C108      1.0  0.66006  0.46889  0.75842  1.0000
  O   O35       1.0  0.69599  0.41311  0.79888  1.0000
  O   O36       1.0  0.55382  0.45186  0.83735  1.0000
  H   H35       1.0  0.50227  0.57664  0.77184  1.0000
  H   H36       1.0  0.74790  0.47851  0.67419  1.0000
  C   C109      1.0  0.24916  0.94253  0.44463  1.0000
  C   C110      1.0  0.18912  0.90775  0.40753  1.0000
  C   C111      1.0  0.28165  0.91005  0.50775  1.0000
  C   C112      1.0  0.19535  0.80729  0.49871  1.0000
  C   C113      1.0  0.15815  0.84191  0.43864  1.0000
  C   C114      1.0  0.25842  0.83994  0.53111  1.0000
  O   O37       1.0  0.29888  0.80401  0.58689  1.0000
  O   O38       1.0  0.33735  0.94618  0.54814  1.0000
  H   H37       1.0  0.27184  0.99773  0.42336  1.0000
  H   H38       1.0  0.17419  0.75210  0.52149  1.0000
  C   C115      1.0  0.05537  0.75084  0.44253  1.0000
  C   C116      1.0  0.09247  0.81088  0.40775  1.0000
  C   C117      1.0  0.99225  0.71835  0.41005  1.0000
  C   C118      1.0  0.00129  0.80465  0.30729  1.0000
  C   C119      1.0  0.06136  0.84185  0.34191  1.0000
  C   C120      1.0  0.96889  0.74158  0.33994  1.0000
  O   O39       1.0  0.91311  0.70112  0.30401  1.0000
  O   O40       1.0  0.95186  0.66265  0.44618  1.0000
  H   H39       1.0  0.07664  0.72816  0.49773  1.0000
  H   H40       1.0  0.97851  0.82581  0.25210  1.0000
  C   C121      1.0  0.05747  0.94463  0.25084  1.0000
  C   C122      1.0  0.09225  0.90753  0.31088  1.0000
  C   C123      1.0  0.08995  0.00775  0.21835  1.0000
  C   C124      1.0  0.19271  0.99871  0.30465  1.0000
  C   C125      1.0  0.15809  0.93864  0.34185  1.0000
  C   C126      1.0  0.16006  0.03111  0.24158  1.0000
  O   O41       1.0  0.19599  0.08689  0.20112  1.0000
  O   O42       1.0  0.05382  0.04814  0.16265  1.0000
  H   H41       1.0  0.00227  0.92336  0.22816  1.0000
  H   H42       1.0  0.24790  0.02149  0.32581  1.0000
  C   C127      1.0  0.25084  0.05747  0.94463  1.0000
  C   C128      1.0  0.31088  0.09225  0.90753  1.0000
  C   C129      1.0  0.21835  0.08995  0.00775  1.0000
  C   C130      1.0  0.30465  0.19271  0.99871  1.0000
  C   C131      1.0  0.34185  0.15809  0.93864  1.0000
  C   C132      1.0  0.24158  0.16006  0.03111  1.0000
  O   O43       1.0  0.20112  0.19599  0.08689  1.0000
  O   O44       1.0  0.16265  0.05382  0.04814  1.0000
  H   H43       1.0  0.22816  0.00227  0.92336  1.0000
  H   H44       1.0  0.32581  0.24790  0.02149  1.0000
  C   C133      1.0  0.44463  0.24916  0.94253  1.0000
  C   C134      1.0  0.40753  0.18912  0.90775  1.0000
  C   C135      1.0  0.50775  0.28165  0.91005  1.0000
  C   C136      1.0  0.49871  0.19535  0.80729  1.0000
  C   C137      1.0  0.43864  0.15815  0.84191  1.0000
  C   C138      1.0  0.53111  0.25842  0.83994  1.0000
  O   O45       1.0  0.58689  0.29888  0.80401  1.0000
  O   O46       1.0  0.54814  0.33735  0.94618  1.0000
  H   H45       1.0  0.42336  0.27184  0.99773  1.0000
  H   H46       1.0  0.52149  0.17419  0.75210  1.0000
  C   C139      1.0  0.44253  0.05537  0.75084  1.0000
  C   C140      1.0  0.40775  0.09247  0.81088  1.0000
  C   C141      1.0  0.41005  0.99225  0.71835  1.0000
  C   C142      1.0  0.30729  0.00129  0.80465  1.0000
  C   C143      1.0  0.34191  0.06136  0.84185  1.0000
  C   C144      1.0  0.33994  0.96889  0.74158  1.0000
  O   O47       1.0  0.30401  0.91311  0.70112  1.0000
  O   O48       1.0  0.44618  0.95186  0.66265  1.0000
  H   H47       1.0  0.49773  0.07664  0.72816  1.0000
  H   H48       1.0  0.25210  0.97851  0.82581  1.0000
  Ti  Ti1       1.0  0.62477  0.37523  0.87523  1.0000
  Ti  Ti2       1.0  0.87523  0.62477  0.37523  1.0000
  Ti  Ti3       1.0  0.37523  0.87523  0.62477  1.0000
  Ti  Ti4       1.0  0.12477  0.12477  0.12477  1.0000
  Ti  Ti5       1.0  0.37525  0.62475  0.12475  1.0000
  Ti  Ti6       1.0  0.12475  0.37525  0.62475  1.0000
  Ti  Ti7       1.0  0.62475  0.12475  0.37525  1.0000
  Ti  Ti8       1.0  0.87525  0.87525  0.87525  1.0000
