data_image0
_chemical_formula_structural       O7HPC3HC2HC2HCH2CO7HPC3HC2HC2HCH2CO7HPC3HC2HC2HCH2CO7HPC3HC2HC2HCH2CEu4O7HPC3HC2HC2HCH2CO7HPC3HC2HC2HCH2CO7HPC3HC2HC2HCH2CO7HPC3HC2HC2HCH2CEu4
_chemical_formula_sum              "O56 H48 P8 C72 Eu8"
_cell_length_a       15.931
_cell_length_b       15.6161
_cell_length_c       9.2917
_cell_angle_alpha    90
_cell_angle_beta     112.201
_cell_angle_gamma    90

_space_group_name_H-M_alt    "P 1"
_space_group_IT_number       1

loop_
  _space_group_symop_operation_xyz
  'x, y, z'

loop_
  _atom_site_type_symbol
  _atom_site_label
  _atom_site_symmetry_multiplicity
  _atom_site_fract_x
  _atom_site_fract_y
  _atom_site_fract_z
  _atom_site_occupancy
  O   O1        1.0  0.42190  0.66270  0.13640  1.0000
  O   O2        1.0  0.46600  0.72670  0.36510  1.0000
  O   O3        1.0  0.46150  0.57870  0.82960  1.0000
  O   O4        1.0  0.40700  0.44670  0.80350  1.0000
  O   O5        1.0  0.37750  0.26140  0.28830  1.0000
  O   O6        1.0  0.34300  0.34650  0.04460  1.0000
  O   O7        1.0  0.23150  0.24230  0.06800  1.0000
  H   H1        1.0  0.18180  0.26400  0.04900  1.0000
  P   P1        1.0  0.30715  0.30800  0.15600  1.0000
  C   C1        1.0  0.43150  0.66560  0.28000  1.0000
  C   C2        1.0  0.40000  0.59120  0.34900  1.0000
  C   C3        1.0  0.42500  0.58770  0.50900  1.0000
  H   H2        1.0  0.45995  0.63130  0.57170  1.0000
  C   C4        1.0  0.39850  0.51960  0.57500  1.0000
  C   C5        1.0  0.34350  0.45420  0.48400  1.0000
  H   H3        1.0  0.32525  0.40870  0.52920  1.0000
  C   C6        1.0  0.31750  0.45890  0.32200  1.0000
  C   C7        1.0  0.34550  0.52630  0.25800  1.0000
  H   H4        1.0  0.32800  0.52880  0.15020  1.0000
  C   C8        1.0  0.25250  0.39080  0.22400  1.0000
  H   H5        1.0  0.20675  0.41820  0.13530  1.0000
  H   H6        1.0  0.22175  0.36460  0.28560  1.0000
  C   C9        1.0  0.42600  0.51530  0.75000  1.0000
  O   O8        1.0  0.07810  0.16270  0.36360  1.0000
  O   O9        1.0  0.03400  0.22670  0.13490  1.0000
  O   O10       1.0  0.03850  0.07870  0.67040  1.0000
  O   O11       1.0  0.09300  0.94670  0.69650  1.0000
  O   O12       1.0  0.12250  0.76140  0.21170  1.0000
  O   O13       1.0  0.15700  0.84650  0.45540  1.0000
  O   O14       1.0  0.26850  0.74230  0.43200  1.0000
  H   H7        1.0  0.31820  0.76400  0.45100  1.0000
  P   P2        1.0  0.19285  0.80800  0.34400  1.0000
  C   C10       1.0  0.06850  0.16560  0.22000  1.0000
  C   C11       1.0  0.10000  0.09120  0.15100  1.0000
  C   C12       1.0  0.07500  0.08770  0.99100  1.0000
  H   H8        1.0  0.04005  0.13130  0.92830  1.0000
  C   C13       1.0  0.10150  0.01960  0.92500  1.0000
  C   C14       1.0  0.15650  0.95420  0.01600  1.0000
  H   H9        1.0  0.17475  0.90870  0.97080  1.0000
  C   C15       1.0  0.18250  0.95890  0.17800  1.0000
  C   C16       1.0  0.15450  0.02630  0.24200  1.0000
  H   H10       1.0  0.17200  0.02880  0.34980  1.0000
  C   C17       1.0  0.24750  0.89080  0.27600  1.0000
  H   H11       1.0  0.29325  0.91820  0.36470  1.0000
  H   H12       1.0  0.27825  0.86460  0.21440  1.0000
  C   C18       1.0  0.07400  0.01530  0.75000  1.0000
  O   O15       1.0  0.07810  0.33730  0.86360  1.0000
  O   O16       1.0  0.03400  0.27330  0.63490  1.0000
  O   O17       1.0  0.03850  0.42130  0.17040  1.0000
  O   O18       1.0  0.09300  0.55330  0.19650  1.0000
  O   O19       1.0  0.12250  0.73860  0.71170  1.0000
  O   O20       1.0  0.15700  0.65350  0.95540  1.0000
  O   O21       1.0  0.26850  0.75770  0.93200  1.0000
  H   H13       1.0  0.31820  0.73600  0.95100  1.0000
  P   P3        1.0  0.19285  0.69200  0.84400  1.0000
  C   C19       1.0  0.06850  0.33440  0.72000  1.0000
  C   C20       1.0  0.10000  0.40880  0.65100  1.0000
  C   C21       1.0  0.07500  0.41230  0.49100  1.0000
  H   H14       1.0  0.04005  0.36870  0.42830  1.0000
  C   C22       1.0  0.10150  0.48040  0.42500  1.0000
  C   C23       1.0  0.15650  0.54580  0.51600  1.0000
  H   H15       1.0  0.17475  0.59130  0.47080  1.0000
  C   C24       1.0  0.18250  0.54110  0.67800  1.0000
  C   C25       1.0  0.15450  0.47370  0.74200  1.0000
  H   H16       1.0  0.17200  0.47120  0.84980  1.0000
  C   C26       1.0  0.24750  0.60920  0.77600  1.0000
  H   H17       1.0  0.29325  0.58180  0.86470  1.0000
  H   H18       1.0  0.27825  0.63540  0.71440  1.0000
  C   C27       1.0  0.07400  0.48470  0.25000  1.0000
  O   O22       1.0  0.42190  0.83730  0.63640  1.0000
  O   O23       1.0  0.46600  0.77330  0.86510  1.0000
  O   O24       1.0  0.46150  0.92130  0.32960  1.0000
  O   O25       1.0  0.40700  0.05330  0.30350  1.0000
  O   O26       1.0  0.37750  0.23860  0.78830  1.0000
  O   O27       1.0  0.34300  0.15350  0.54460  1.0000
  O   O28       1.0  0.23150  0.25770  0.56800  1.0000
  H   H19       1.0  0.18180  0.23600  0.54900  1.0000
  P   P4        1.0  0.30715  0.19200  0.65600  1.0000
  C   C28       1.0  0.43150  0.83440  0.78000  1.0000
  C   C29       1.0  0.40000  0.90880  0.84900  1.0000
  C   C30       1.0  0.42500  0.91230  0.00900  1.0000
  H   H20       1.0  0.45995  0.86870  0.07170  1.0000
  C   C31       1.0  0.39850  0.98040  0.07500  1.0000
  C   C32       1.0  0.34350  0.04580  0.98400  1.0000
  H   H21       1.0  0.32525  0.09130  0.02920  1.0000
  C   C33       1.0  0.31750  0.04110  0.82200  1.0000
  C   C34       1.0  0.34550  0.97370  0.75800  1.0000
  H   H22       1.0  0.32800  0.97120  0.65020  1.0000
  C   C35       1.0  0.25250  0.10920  0.72400  1.0000
  H   H23       1.0  0.20675  0.08180  0.63530  1.0000
  H   H24       1.0  0.22175  0.13540  0.78560  1.0000
  C   C36       1.0  0.42600  0.98470  0.25000  1.0000
  Eu  Eu1       1.0  0.03962  0.66596  0.03337  1.0000
  Eu  Eu2       1.0  0.46038  0.16596  0.46663  1.0000
  Eu  Eu3       1.0  0.46038  0.33404  0.96663  1.0000
  Eu  Eu4       1.0  0.03962  0.83404  0.53337  1.0000
  O   O29       1.0  0.92190  0.66270  0.13640  1.0000
  O   O30       1.0  0.96600  0.72670  0.36510  1.0000
  O   O31       1.0  0.96150  0.57870  0.82960  1.0000
  O   O32       1.0  0.90700  0.44670  0.80350  1.0000
  O   O33       1.0  0.87750  0.26140  0.28830  1.0000
  O   O34       1.0  0.84300  0.34650  0.04460  1.0000
  O   O35       1.0  0.73150  0.24230  0.06800  1.0000
  H   H25       1.0  0.68180  0.26400  0.04900  1.0000
  P   P5        1.0  0.80715  0.30800  0.15600  1.0000
  C   C37       1.0  0.93150  0.66560  0.28000  1.0000
  C   C38       1.0  0.90000  0.59120  0.34900  1.0000
  C   C39       1.0  0.92500  0.58770  0.50900  1.0000
  H   H26       1.0  0.95995  0.63130  0.57170  1.0000
  C   C40       1.0  0.89850  0.51960  0.57500  1.0000
  C   C41       1.0  0.84350  0.45420  0.48400  1.0000
  H   H27       1.0  0.82525  0.40870  0.52920  1.0000
  C   C42       1.0  0.81750  0.45890  0.32200  1.0000
  C   C43       1.0  0.84550  0.52630  0.25800  1.0000
  H   H28       1.0  0.82800  0.52880  0.15020  1.0000
  C   C44       1.0  0.75250  0.39080  0.22400  1.0000
  H   H29       1.0  0.70675  0.41820  0.13530  1.0000
  H   H30       1.0  0.72175  0.36460  0.28560  1.0000
  C   C45       1.0  0.92600  0.51530  0.75000  1.0000
  O   O36       1.0  0.57810  0.16270  0.36360  1.0000
  O   O37       1.0  0.53400  0.22670  0.13490  1.0000
  O   O38       1.0  0.53850  0.07870  0.67040  1.0000
  O   O39       1.0  0.59300  0.94670  0.69650  1.0000
  O   O40       1.0  0.62250  0.76140  0.21170  1.0000
  O   O41       1.0  0.65700  0.84650  0.45540  1.0000
  O   O42       1.0  0.76850  0.74230  0.43200  1.0000
  H   H31       1.0  0.81820  0.76400  0.45100  1.0000
  P   P6        1.0  0.69285  0.80800  0.34400  1.0000
  C   C46       1.0  0.56850  0.16560  0.22000  1.0000
  C   C47       1.0  0.60000  0.09120  0.15100  1.0000
  C   C48       1.0  0.57500  0.08770  0.99100  1.0000
  H   H32       1.0  0.54005  0.13130  0.92830  1.0000
  C   C49       1.0  0.60150  0.01960  0.92500  1.0000
  C   C50       1.0  0.65650  0.95420  0.01600  1.0000
  H   H33       1.0  0.67475  0.90870  0.97080  1.0000
  C   C51       1.0  0.68250  0.95890  0.17800  1.0000
  C   C52       1.0  0.65450  0.02630  0.24200  1.0000
  H   H34       1.0  0.67200  0.02880  0.34980  1.0000
  C   C53       1.0  0.74750  0.89080  0.27600  1.0000
  H   H35       1.0  0.79325  0.91820  0.36470  1.0000
  H   H36       1.0  0.77825  0.86460  0.21440  1.0000
  C   C54       1.0  0.57400  0.01530  0.75000  1.0000
  O   O43       1.0  0.57810  0.33730  0.86360  1.0000
  O   O44       1.0  0.53400  0.27330  0.63490  1.0000
  O   O45       1.0  0.53850  0.42130  0.17040  1.0000
  O   O46       1.0  0.59300  0.55330  0.19650  1.0000
  O   O47       1.0  0.62250  0.73860  0.71170  1.0000
  O   O48       1.0  0.65700  0.65350  0.95540  1.0000
  O   O49       1.0  0.76850  0.75770  0.93200  1.0000
  H   H37       1.0  0.81820  0.73600  0.95100  1.0000
  P   P7        1.0  0.69285  0.69200  0.84400  1.0000
  C   C55       1.0  0.56850  0.33440  0.72000  1.0000
  C   C56       1.0  0.60000  0.40880  0.65100  1.0000
  C   C57       1.0  0.57500  0.41230  0.49100  1.0000
  H   H38       1.0  0.54005  0.36870  0.42830  1.0000
  C   C58       1.0  0.60150  0.48040  0.42500  1.0000
  C   C59       1.0  0.65650  0.54580  0.51600  1.0000
  H   H39       1.0  0.67475  0.59130  0.47080  1.0000
  C   C60       1.0  0.68250  0.54110  0.67800  1.0000
  C   C61       1.0  0.65450  0.47370  0.74200  1.0000
  H   H40       1.0  0.67200  0.47120  0.84980  1.0000
  C   C62       1.0  0.74750  0.60920  0.77600  1.0000
  H   H41       1.0  0.79325  0.58180  0.86470  1.0000
  H   H42       1.0  0.77825  0.63540  0.71440  1.0000
  C   C63       1.0  0.57400  0.48470  0.25000  1.0000
  O   O50       1.0  0.92190  0.83730  0.63640  1.0000
  O   O51       1.0  0.96600  0.77330  0.86510  1.0000
  O   O52       1.0  0.96150  0.92130  0.32960  1.0000
  O   O53       1.0  0.90700  0.05330  0.30350  1.0000
  O   O54       1.0  0.87750  0.23860  0.78830  1.0000
  O   O55       1.0  0.84300  0.15350  0.54460  1.0000
  O   O56       1.0  0.73150  0.25770  0.56800  1.0000
  H   H43       1.0  0.68180  0.23600  0.54900  1.0000
  P   P8        1.0  0.80715  0.19200  0.65600  1.0000
  C   C64       1.0  0.93150  0.83440  0.78000  1.0000
  C   C65       1.0  0.90000  0.90880  0.84900  1.0000
  C   C66       1.0  0.92500  0.91230  0.00900  1.0000
  H   H44       1.0  0.95995  0.86870  0.07170  1.0000
  C   C67       1.0  0.89850  0.98040  0.07500  1.0000
  C   C68       1.0  0.84350  0.04580  0.98400  1.0000
  H   H45       1.0  0.82525  0.09130  0.02920  1.0000
  C   C69       1.0  0.81750  0.04110  0.82200  1.0000
  C   C70       1.0  0.84550  0.97370  0.75800  1.0000
  H   H46       1.0  0.82800  0.97120  0.65020  1.0000
  C   C71       1.0  0.75250  0.10920  0.72400  1.0000
  H   H47       1.0  0.70675  0.08180  0.63530  1.0000
  H   H48       1.0  0.72175  0.13540  0.78560  1.0000
  C   C72       1.0  0.92600  0.98470  0.25000  1.0000
  Eu  Eu5       1.0  0.53962  0.66596  0.03337  1.0000
  Eu  Eu6       1.0  0.96038  0.16596  0.46663  1.0000
  Eu  Eu7       1.0  0.96038  0.33404  0.96663  1.0000
  Eu  Eu8       1.0  0.53962  0.83404  0.53337  1.0000
