data_image0
_chemical_formula_structural       N3HNHC6H3C2H3CH2CH3CH3NHNHN2C7H3CH3CH3CH2CH3N3HNHC6H3C2H3CH2CH3CH3NHNHN2C7H3CH3CH3CH2CH3SO7C2HC3HC2HCSO4C5HCHO3CHCO5C2HC3HC2HCSO4C5HCHO3CHCSO2Ni4
_chemical_formula_sum              "N16 H76 C76 S4 O28 Ni4"
_cell_length_a       14.105
_cell_length_b       14.436
_cell_length_c       16.964
_cell_angle_alpha    72.7
_cell_angle_beta     75.13
_cell_angle_gamma    79.03

_space_group_name_H-M_alt    "P 1"
_space_group_IT_number       1

loop_
  _space_group_symop_operation_xyz
  'x, y, z'

loop_
  _atom_site_type_symbol
  _atom_site_label
  _atom_site_symmetry_multiplicity
  _atom_site_fract_x
  _atom_site_fract_y
  _atom_site_fract_z
  _atom_site_occupancy
  N   N1        1.0  0.64360  0.63810  0.13340  1.0000
  N   N2        1.0  0.92870  0.28030  0.16690  1.0000
  N   N3        1.0  0.89460  0.24610  0.11640  1.0000
  H   H1        1.0  0.89320  0.18335  0.12356  1.0000
  N   N4        1.0  0.70930  0.70250  0.09910  1.0000
  H   H2        1.0  0.69890  0.76179  0.10624  1.0000
  C   C1        1.0  0.87580  0.40320  0.06690  1.0000
  C   C2        1.0  0.91400  0.37840  0.13730  1.0000
  C   C3        1.0  0.68640  0.56080  0.10720  1.0000
  C   C4        1.0  0.79210  0.66730  0.05280  1.0000
  C   C5        1.0  0.77940  0.57370  0.05840  1.0000
  C   C6        1.0  0.94380  0.44260  0.17790  1.0000
  H   H3        1.0  0.89383  0.44827  0.22898  1.0000
  H   H4        1.0  0.94962  0.50755  0.13855  1.0000
  H   H5        1.0  0.00765  0.41458  0.19317  1.0000
  C   C7        1.0  0.86220  0.31630  0.05300  1.0000
  C   C8        1.0  0.63730  0.46680  0.13500  1.0000
  H   H6        1.0  0.67863  0.41328  0.16624  1.0000
  H   H7        1.0  0.62996  0.45027  0.08507  1.0000
  H   H8        1.0  0.57211  0.47674  0.17148  1.0000
  C   C9        1.0  0.85130  0.50650  0.01180  1.0000
  H   H9        1.0  0.91348  0.53630  0.98582  1.0000
  H   H10       1.0  0.82365  0.50124  0.96551  1.0000
  C   C10       1.0  0.87500  0.72690  0.00850  1.0000
  H   H11       1.0  0.84885  0.79629  0.99426  1.0000
  H   H12       1.0  0.90934  0.70771  0.95665  1.0000
  H   H13       1.0  0.92150  0.71575  0.04554  1.0000
  C   C11       1.0  0.82010  0.29460  0.98890  1.0000
  H   H14       1.0  0.80133  0.22819  0.01000  1.0000
  H   H15       1.0  0.86974  0.29973  0.93596  1.0000
  H   H16       1.0  0.76161  0.34157  0.97880  1.0000
  N   N5        1.0  0.93840  0.31170  0.38390  1.0000
  H   H17       1.0  0.00270  0.30552  0.37938  1.0000
  N   N6        1.0  0.48550  0.50460  0.35700  1.0000
  H   H18       1.0  0.42661  0.50803  0.34696  1.0000
  N   N7        1.0  0.89480  0.26560  0.34590  1.0000
  N   N8        1.0  0.55010  0.56870  0.31190  1.0000
  C   C12       1.0  0.62990  0.53780  0.34590  1.0000
  C   C13       1.0  0.87380  0.36740  0.42880  1.0000
  C   C14       1.0  0.61510  0.45360  0.41420  1.0000
  C   C15       1.0  0.78110  0.35450  0.42590  1.0000
  C   C16       1.0  0.79600  0.29320  0.37230  1.0000
  C   C17       1.0  0.51940  0.43710  0.41690  1.0000
  C   C18       1.0  0.71950  0.58810  0.31780  1.0000
  H   H19       1.0  0.72755  0.62185  0.25758  1.0000
  H   H20       1.0  0.77743  0.53992  0.32700  1.0000
  H   H21       1.0  0.71282  0.63575  0.35029  1.0000
  C   C19       1.0  0.46310  0.35800  0.47410  1.0000
  H   H22       1.0  0.39300  0.37586  0.47222  1.0000
  H   H23       1.0  0.47106  0.34788  0.53193  1.0000
  H   H24       1.0  0.48788  0.29759  0.45631  1.0000
  C   C20       1.0  0.72300  0.25730  0.34550  1.0000
  H   H25       1.0  0.75621  0.22514  0.30053  1.0000
  H   H26       1.0  0.67544  0.31224  0.32422  1.0000
  H   H27       1.0  0.68808  0.21028  0.39361  1.0000
  C   C21       1.0  0.68610  0.39650  0.46930  1.0000
  H   H28       1.0  0.69954  0.44004  0.49948  1.0000
  H   H29       1.0  0.65322  0.34261  0.51244  1.0000
  C   C22       1.0  0.90770  0.42730  0.47230  1.0000
  H   H30       1.0  0.90482  0.39166  0.53168  1.0000
  H   H31       1.0  0.86458  0.48956  0.46901  1.0000
  H   H32       1.0  0.97578  0.43985  0.44466  1.0000
  N   N9        1.0  0.35640  0.36190  0.86660  1.0000
  N   N10       1.0  0.07130  0.71970  0.83310  1.0000
  N   N11       1.0  0.10540  0.75390  0.88360  1.0000
  H   H33       1.0  0.10680  0.81665  0.87644  1.0000
  N   N12       1.0  0.29070  0.29750  0.90090  1.0000
  H   H34       1.0  0.30110  0.23821  0.89376  1.0000
  C   C23       1.0  0.12420  0.59680  0.93310  1.0000
  C   C24       1.0  0.08600  0.62160  0.86270  1.0000
  C   C25       1.0  0.31360  0.43920  0.89280  1.0000
  C   C26       1.0  0.20790  0.33270  0.94720  1.0000
  C   C27       1.0  0.22060  0.42630  0.94160  1.0000
  C   C28       1.0  0.05620  0.55740  0.82210  1.0000
  H   H35       1.0  0.10617  0.55174  0.77102  1.0000
  H   H36       1.0  0.05038  0.49245  0.86145  1.0000
  H   H37       1.0  0.99236  0.58542  0.80683  1.0000
  C   C29       1.0  0.13780  0.68370  0.94700  1.0000
  C   C30       1.0  0.36270  0.53320  0.86500  1.0000
  H   H38       1.0  0.32137  0.58672  0.83376  1.0000
  H   H39       1.0  0.37004  0.54973  0.91493  1.0000
  H   H40       1.0  0.42789  0.52326  0.82852  1.0000
  C   C31       1.0  0.14870  0.49350  0.98820  1.0000
  H   H41       1.0  0.08652  0.46370  0.01418  1.0000
  H   H42       1.0  0.17635  0.49876  0.03450  1.0000
  C   C32       1.0  0.12500  0.27310  0.99150  1.0000
  H   H43       1.0  0.15115  0.20371  0.00574  1.0000
  H   H44       1.0  0.09067  0.29229  0.04335  1.0000
  H   H45       1.0  0.07850  0.28425  0.95447  1.0000
  C   C33       1.0  0.17990  0.70540  0.01110  1.0000
  H   H46       1.0  0.19867  0.77181  0.99000  1.0000
  H   H47       1.0  0.13026  0.70027  0.06404  1.0000
  H   H48       1.0  0.23840  0.65843  0.02120  1.0000
  N   N13       1.0  0.06160  0.68830  0.61610  1.0000
  H   H49       1.0  0.99730  0.69448  0.62062  1.0000
  N   N14       1.0  0.51450  0.49540  0.64300  1.0000
  H   H50       1.0  0.57339  0.49197  0.65304  1.0000
  N   N15       1.0  0.10520  0.73440  0.65410  1.0000
  N   N16       1.0  0.44990  0.43130  0.68810  1.0000
  C   C34       1.0  0.37010  0.46220  0.65410  1.0000
  C   C35       1.0  0.12620  0.63260  0.57120  1.0000
  C   C36       1.0  0.38490  0.54640  0.58580  1.0000
  C   C37       1.0  0.21890  0.64550  0.57410  1.0000
  C   C38       1.0  0.20400  0.70680  0.62770  1.0000
  C   C39       1.0  0.48060  0.56290  0.58310  1.0000
  C   C40       1.0  0.28050  0.41190  0.68220  1.0000
  H   H51       1.0  0.27245  0.37815  0.74242  1.0000
  H   H52       1.0  0.22257  0.46008  0.67300  1.0000
  H   H53       1.0  0.28719  0.36425  0.64971  1.0000
  C   C41       1.0  0.53690  0.64200  0.52590  1.0000
  H   H54       1.0  0.60700  0.62414  0.52778  1.0000
  H   H55       1.0  0.52894  0.65212  0.46807  1.0000
  H   H56       1.0  0.51212  0.70241  0.54369  1.0000
  C   C42       1.0  0.27700  0.74270  0.65450  1.0000
  H   H57       1.0  0.24379  0.77487  0.69947  1.0000
  H   H58       1.0  0.32456  0.68776  0.67578  1.0000
  H   H59       1.0  0.31192  0.78972  0.60639  1.0000
  C   C43       1.0  0.31390  0.60350  0.53070  1.0000
  H   H60       1.0  0.30047  0.55996  0.50052  1.0000
  H   H61       1.0  0.34678  0.65739  0.48756  1.0000
  C   C44       1.0  0.09230  0.57270  0.52770  1.0000
  H   H62       1.0  0.09518  0.60835  0.46832  1.0000
  H   H63       1.0  0.13542  0.51044  0.53099  1.0000
  H   H64       1.0  0.02422  0.56015  0.55534  1.0000
  S   S1        1.0  0.21190  0.56270  0.28851  1.0000
  O   O1        1.0  0.09490  0.26050  0.25090  1.0000
  O   O2        1.0  0.43170  0.58800  0.19440  1.0000
  O   O3        1.0  0.27920  0.54500  0.34570  1.0000
  O   O4        1.0  0.21850  0.18840  0.16830  1.0000
  O   O5        1.0  0.11380  0.53610  0.33320  1.0000
  O   O6        1.0  0.42100  0.62730  0.05960  1.0000
  O   O7        1.0  0.20790  0.66300  0.23400  1.0000
  C   C45       1.0  0.23650  0.34200  0.18480  1.0000
  C   C46       1.0  0.20610  0.40850  0.23390  1.0000
  H   H65       1.0  0.14865  0.40032  0.27792  1.0000
  C   C47       1.0  0.34110  0.49870  0.15410  1.0000
  C   C48       1.0  0.25700  0.48540  0.22030  1.0000
  C   C49       1.0  0.36760  0.43390  0.10250  1.0000
  H   H66       1.0  0.42170  0.44368  0.05538  1.0000
  C   C50       1.0  0.40070  0.58190  0.13300  1.0000
  C   C51       1.0  0.31610  0.35740  0.11960  1.0000
  H   H67       1.0  0.33634  0.31313  0.08495  1.0000
  C   C52       1.0  0.18090  0.25630  0.20400  1.0000
  S   S2        1.0  0.65370  0.97760  0.13010  1.0000
  O   O8        1.0  0.87630  0.09610  0.27780  1.0000
  O   O9        1.0  0.58330  0.77590  0.23520  1.0000
  O   O10       1.0  0.47920  0.81270  0.34560  1.0000
  O   O11       1.0  0.87920  0.99330  0.39840  1.0000
  C   C53       1.0  0.55890  0.81740  0.29300  1.0000
  C   C54       1.0  0.77680  0.96980  0.31990  1.0000
  C   C55       1.0  0.63310  0.87290  0.29920  1.0000
  C   C56       1.0  0.85160  0.02440  0.33230  1.0000
  C   C57       1.0  0.71640  0.91860  0.38860  1.0000
  H   H68       1.0  0.72284  0.91413  0.44402  1.0000
  C   C58       1.0  0.64510  0.87270  0.37630  1.0000
  H   H69       1.0  0.60197  0.83900  0.42491  1.0000
  O   O12       1.0  0.71490  0.90390  0.07930  1.0000
  O   O13       1.0  0.68370  0.07630  0.08730  1.0000
  O   O14       1.0  0.53540  0.97830  0.13650  1.0000
  C   C59       1.0  0.76070  0.97800  0.24500  1.0000
  H   H70       1.0  0.79779  0.01863  0.19656  1.0000
  C   C60       1.0  0.68860  0.92700  0.23460  1.0000
  O   O15       1.0  0.72080  0.45500  0.65430  1.0000
  O   O16       1.0  0.78150  0.81160  0.83170  1.0000
  O   O17       1.0  0.88620  0.46390  0.66680  1.0000
  O   O18       1.0  0.57900  0.37270  0.94040  1.0000
  O   O19       1.0  0.79210  0.33700  0.76600  1.0000
  C   C61       1.0  0.76350  0.65800  0.81520  1.0000
  C   C62       1.0  0.79390  0.59150  0.76610  1.0000
  H   H71       1.0  0.85135  0.59968  0.72208  1.0000
  C   C63       1.0  0.65890  0.50130  0.84590  1.0000
  C   C64       1.0  0.74300  0.51460  0.77970  1.0000
  C   C65       1.0  0.63240  0.56610  0.89750  1.0000
  H   H72       1.0  0.57830  0.55632  0.94462  1.0000
  C   C66       1.0  0.59930  0.41810  0.86700  1.0000
  C   C67       1.0  0.68390  0.64260  0.88040  1.0000
  H   H73       1.0  0.66366  0.68687  0.91505  1.0000
  C   C68       1.0  0.81910  0.74370  0.79600  1.0000
  S   S3        1.0  0.78810  0.43730  0.71149  1.0000
  O   O20       1.0  0.90510  0.73950  0.74910  1.0000
  O   O21       1.0  0.56830  0.41200  0.80560  1.0000
  O   O22       1.0  0.52080  0.18730  0.65440  1.0000
  O   O23       1.0  0.12080  0.00670  0.60160  1.0000
  C   C69       1.0  0.44110  0.18260  0.70700  1.0000
  C   C70       1.0  0.22320  0.03020  0.68010  1.0000
  C   C71       1.0  0.36690  0.12710  0.70080  1.0000
  C   C72       1.0  0.14840  0.97560  0.66770  1.0000
  C   C73       1.0  0.28360  0.08140  0.61140  1.0000
  H   H74       1.0  0.27716  0.08587  0.55598  1.0000
  C   C74       1.0  0.35490  0.12730  0.62370  1.0000
  H   H75       1.0  0.39803  0.16100  0.57509  1.0000
  O   O24       1.0  0.28510  0.09610  0.92070  1.0000
  O   O25       1.0  0.31630  0.92370  0.91270  1.0000
  O   O26       1.0  0.46460  0.02170  0.86350  1.0000
  C   C75       1.0  0.23930  0.02200  0.75500  1.0000
  H   H76       1.0  0.20221  0.98137  0.80344  1.0000
  C   C76       1.0  0.31140  0.07300  0.76540  1.0000
  S   S4        1.0  0.34630  0.02240  0.86990  1.0000
  O   O27       1.0  0.12370  0.90390  0.72220  1.0000
  O   O28       1.0  0.41670  0.22410  0.76480  1.0000
  Ni  Ni1       1.0  0.97973  0.18390  0.26699  1.0000
  Ni  Ni2       1.0  0.51365  0.67717  0.21142  1.0000
  Ni  Ni3       1.0  0.02027  0.81610  0.73301  1.0000
  Ni  Ni4       1.0  0.48635  0.32283  0.78858  1.0000
