data_image0
_chemical_formula_structural       N2O2HO2CHCHCHC4HCHCHC3N2O2HO2CHCHCHC4HCHCHC3N2O2HO2CHCHCHC4HCHCHC3N2O2HO2CHCHCHC4HCHCHC3O3PO6PO3W6O20Cu2OW6O2W6O20Cu2O2WOW3OW2O
_chemical_formula_sum              "N8 O76 H28 C48 P2 W24 Cu4"
_cell_length_a       10.91
_cell_length_b       16.12
_cell_length_c       22.621
_cell_angle_alpha    90
_cell_angle_beta     94.694
_cell_angle_gamma    90

_space_group_name_H-M_alt    "P 1"
_space_group_IT_number       1

loop_
  _space_group_symop_operation_xyz
  'x, y, z'

loop_
  _atom_site_type_symbol
  _atom_site_label
  _atom_site_symmetry_multiplicity
  _atom_site_fract_x
  _atom_site_fract_y
  _atom_site_fract_z
  _atom_site_occupancy
  N   N1        1.0  0.16060  0.21040  0.22940  1.0000
  N   N2        1.0  0.34050  0.26480  0.29890  1.0000
  O   O1        1.0  0.36060  0.38910  0.14540  1.0000
  O   O2        1.0  0.19840  0.41730  0.08470  1.0000
  H   H1        1.0  0.24480  0.45300  0.07360  1.0000
  O   O3        1.0  0.29360  0.54240  0.23640  1.0000
  O   O4        1.0  0.13640  0.45940  0.21390  1.0000
  C   C1        1.0  0.07070  0.17210  0.19520  1.0000
  H   H2        1.0  0.03550  0.12370  0.20850  1.0000
  C   C2        1.0  0.02990  0.20520  0.13950  1.0000
  H   H3        1.0  0.96490  0.18080  0.11670  1.0000
  C   C3        1.0  0.08500  0.27110  0.12020  1.0000
  H   H4        1.0  0.05980  0.29200  0.08280  1.0000
  C   C4        1.0  0.18170  0.31120  0.15460  1.0000
  C   C5        1.0  0.20900  0.28180  0.21210  1.0000
  C   C6        1.0  0.25120  0.37800  0.12710  1.0000
  C   C7        1.0  0.42010  0.28860  0.34540  1.0000
  H   H5        1.0  0.45800  0.24880  0.37030  1.0000
  C   C8        1.0  0.44390  0.36870  0.35530  1.0000
  H   H6        1.0  0.49910  0.38480  0.38670  1.0000
  C   C9        1.0  0.38700  0.42650  0.31910  1.0000
  H   H7        1.0  0.40260  0.48220  0.32710  1.0000
  C   C10       1.0  0.30640  0.40590  0.27090  1.0000
  C   C11       1.0  0.29090  0.32040  0.26020  1.0000
  C   C12       1.0  0.24010  0.47400  0.23580  1.0000
  N   N3        1.0  0.33940  0.71040  0.27060  1.0000
  N   N4        1.0  0.15950  0.76480  0.20110  1.0000
  O   O5        1.0  0.13940  0.88910  0.35460  1.0000
  O   O6        1.0  0.30160  0.91730  0.41530  1.0000
  H   H8        1.0  0.25520  0.95300  0.42640  1.0000
  O   O7        1.0  0.20640  0.04240  0.26360  1.0000
  O   O8        1.0  0.36360  0.95940  0.28610  1.0000
  C   C13       1.0  0.42930  0.67210  0.30480  1.0000
  H   H9        1.0  0.46450  0.62370  0.29150  1.0000
  C   C14       1.0  0.47010  0.70520  0.36050  1.0000
  H   H10       1.0  0.53510  0.68080  0.38330  1.0000
  C   C15       1.0  0.41500  0.77110  0.37980  1.0000
  H   H11       1.0  0.44020  0.79200  0.41720  1.0000
  C   C16       1.0  0.31830  0.81120  0.34540  1.0000
  C   C17       1.0  0.29100  0.78180  0.28790  1.0000
  C   C18       1.0  0.24880  0.87800  0.37290  1.0000
  C   C19       1.0  0.07990  0.78860  0.15460  1.0000
  H   H12       1.0  0.04200  0.74880  0.12970  1.0000
  C   C20       1.0  0.05610  0.86870  0.14470  1.0000
  H   H13       1.0  0.00090  0.88480  0.11330  1.0000
  C   C21       1.0  0.11300  0.92650  0.18090  1.0000
  H   H14       1.0  0.09740  0.98220  0.17290  1.0000
  C   C22       1.0  0.19360  0.90590  0.22910  1.0000
  C   C23       1.0  0.20910  0.82040  0.23980  1.0000
  C   C24       1.0  0.25990  0.97400  0.26420  1.0000
  N   N5        1.0  0.83940  0.78960  0.77060  1.0000
  N   N6        1.0  0.65950  0.73520  0.70110  1.0000
  O   O9        1.0  0.63940  0.61090  0.85460  1.0000
  O   O10       1.0  0.80160  0.58270  0.91530  1.0000
  H   H15       1.0  0.75520  0.54700  0.92640  1.0000
  O   O11       1.0  0.70640  0.45760  0.76360  1.0000
  O   O12       1.0  0.86360  0.54060  0.78610  1.0000
  C   C25       1.0  0.92930  0.82790  0.80480  1.0000
  H   H16       1.0  0.96450  0.87630  0.79150  1.0000
  C   C26       1.0  0.97010  0.79480  0.86050  1.0000
  H   H17       1.0  0.03510  0.81920  0.88330  1.0000
  C   C27       1.0  0.91500  0.72890  0.87980  1.0000
  H   H18       1.0  0.94020  0.70800  0.91720  1.0000
  C   C28       1.0  0.81830  0.68880  0.84540  1.0000
  C   C29       1.0  0.79100  0.71820  0.78790  1.0000
  C   C30       1.0  0.74880  0.62200  0.87290  1.0000
  C   C31       1.0  0.57990  0.71140  0.65460  1.0000
  H   H19       1.0  0.54200  0.75120  0.62970  1.0000
  C   C32       1.0  0.55610  0.63130  0.64470  1.0000
  H   H20       1.0  0.50090  0.61520  0.61330  1.0000
  C   C33       1.0  0.61300  0.57350  0.68090  1.0000
  H   H21       1.0  0.59740  0.51780  0.67290  1.0000
  C   C34       1.0  0.69360  0.59410  0.72910  1.0000
  C   C35       1.0  0.70910  0.67960  0.73980  1.0000
  C   C36       1.0  0.75990  0.52600  0.76420  1.0000
  N   N7        1.0  0.66060  0.28960  0.72940  1.0000
  N   N8        1.0  0.84050  0.23520  0.79890  1.0000
  O   O13       1.0  0.86060  0.11090  0.64540  1.0000
  O   O14       1.0  0.69840  0.08270  0.58470  1.0000
  H   H22       1.0  0.74480  0.04700  0.57360  1.0000
  O   O15       1.0  0.79360  0.95760  0.73640  1.0000
  O   O16       1.0  0.63640  0.04060  0.71390  1.0000
  C   C37       1.0  0.57070  0.32790  0.69520  1.0000
  H   H23       1.0  0.53550  0.37630  0.70850  1.0000
  C   C38       1.0  0.52990  0.29480  0.63950  1.0000
  H   H24       1.0  0.46490  0.31920  0.61670  1.0000
  C   C39       1.0  0.58500  0.22890  0.62020  1.0000
  H   H25       1.0  0.55980  0.20800  0.58280  1.0000
  C   C40       1.0  0.68170  0.18880  0.65460  1.0000
  C   C41       1.0  0.70900  0.21820  0.71210  1.0000
  C   C42       1.0  0.75120  0.12200  0.62710  1.0000
  C   C43       1.0  0.92010  0.21140  0.84540  1.0000
  H   H26       1.0  0.95800  0.25120  0.87030  1.0000
  C   C44       1.0  0.94390  0.13130  0.85530  1.0000
  H   H27       1.0  0.99910  0.11520  0.88670  1.0000
  C   C45       1.0  0.88700  0.07350  0.81910  1.0000
  H   H28       1.0  0.90260  0.01780  0.82710  1.0000
  C   C46       1.0  0.80640  0.09410  0.77090  1.0000
  C   C47       1.0  0.79090  0.17960  0.76020  1.0000
  C   C48       1.0  0.74010  0.02600  0.73580  1.0000
  O   O17       1.0  0.46420  0.91170  0.02630  1.0000
  O   O18       1.0  0.41740  0.06140  0.03080  1.0000
  O   O19       1.0  0.63030  0.01290  0.01610  1.0000
  P   P1        1.0  0.50000  0.00000  0.00000  1.0000
  O   O20       1.0  0.53580  0.08830  0.97370  1.0000
  O   O21       1.0  0.58260  0.93860  0.96920  1.0000
  O   O22       1.0  0.36970  0.98710  0.98390  1.0000
  O   O23       1.0  0.03580  0.41170  0.47370  1.0000
  O   O24       1.0  0.08260  0.56140  0.46920  1.0000
  O   O25       1.0  0.86970  0.51290  0.48390  1.0000
  P   P2        1.0  0.00000  0.50000  0.50000  1.0000
  O   O26       1.0  0.96420  0.58830  0.52630  1.0000
  O   O27       1.0  0.91740  0.43860  0.53080  1.0000
  O   O28       1.0  0.13030  0.48710  0.51610  1.0000
  W   W1        1.0  0.73773  0.02285  0.11592  1.0000
  W   W2        1.0  0.43474  0.09336  0.13629  1.0000
  W   W3        1.0  0.19637  0.06657  0.02201  1.0000
  W   W4        1.0  0.49755  0.87720  0.13023  1.0000
  W   W5        1.0  0.26347  0.85035  0.01320  1.0000
  W   W6        1.0  0.56844  0.78458  0.99440  1.0000
  O   O29       1.0  0.34580  0.07150  0.86000  1.0000
  O   O30       1.0  0.76320  0.11590  0.06580  1.0000
  O   O31       1.0  0.81210  0.95850  0.06000  1.0000
  O   O32       1.0  0.60840  0.08640  0.14480  1.0000
  O   O33       1.0  0.56570  0.02180  0.84610  1.0000
  O   O34       1.0  0.65420  0.92850  0.14000  1.0000
  O   O35       1.0  0.23680  0.88410  0.93420  1.0000
  O   O36       1.0  0.18790  0.04150  0.94000  1.0000
  O   O37       1.0  0.43430  0.97820  0.15390  1.0000
  O   O38       1.0  0.44820  0.18640  0.08770  1.0000
  O   O39       1.0  0.55180  0.81360  0.91230  1.0000
  O   O40       1.0  0.27550  0.07850  0.09980  1.0000
  O   O41       1.0  0.80820  0.04970  0.96480  1.0000
  O   O42       1.0  0.19180  0.95030  0.03520  1.0000
  O   O43       1.0  0.72610  0.83180  0.99650  1.0000
  O   O44       1.0  0.65570  0.14950  0.90870  1.0000
  O   O45       1.0  0.34430  0.85050  0.09130  1.0000
  O   O46       1.0  0.57030  0.80610  0.07470  1.0000
  O   O47       1.0  0.60340  0.21570  0.00990  1.0000
  O   O48       1.0  0.39660  0.78430  0.99010  1.0000
  Cu  Cu1       1.0  0.72697  0.84993  0.71089  1.0000
  Cu  Cu2       1.0  0.27303  0.15007  0.28911  1.0000
  O   O49       1.0  0.72450  0.92150  0.90020  1.0000
  W   W7        1.0  0.23773  0.47715  0.61592  1.0000
  W   W8        1.0  0.93474  0.40664  0.63629  1.0000
  W   W9        1.0  0.69637  0.43343  0.52201  1.0000
  W   W10       1.0  0.99755  0.62280  0.63023  1.0000
  W   W11       1.0  0.76347  0.64965  0.51320  1.0000
  W   W12       1.0  0.06844  0.71542  0.49440  1.0000
  O   O50       1.0  0.27390  0.16820  0.00350  1.0000
  O   O51       1.0  0.10840  0.41360  0.64480  1.0000
  W   W13       1.0  0.76227  0.52285  0.38408  1.0000
  W   W14       1.0  0.06526  0.59336  0.36371  1.0000
  W   W15       1.0  0.30363  0.56657  0.47799  1.0000
  W   W16       1.0  0.00245  0.37720  0.36977  1.0000
  W   W17       1.0  0.23653  0.35035  0.48680  1.0000
  W   W18       1.0  0.93156  0.28458  0.50560  1.0000
  O   O52       1.0  0.15420  0.57150  0.64000  1.0000
  O   O53       1.0  0.73680  0.61590  0.43420  1.0000
  O   O54       1.0  0.68790  0.45850  0.44000  1.0000
  O   O55       1.0  0.89160  0.58640  0.35520  1.0000
  O   O56       1.0  0.93430  0.52180  0.65390  1.0000
  O   O57       1.0  0.84580  0.42850  0.36000  1.0000
  O   O58       1.0  0.26320  0.38410  0.56580  1.0000
  O   O59       1.0  0.31210  0.54150  0.56000  1.0000
  O   O60       1.0  0.06570  0.47820  0.34610  1.0000
  O   O61       1.0  0.42970  0.19390  0.92530  1.0000
  O   O62       1.0  0.94820  0.31360  0.58770  1.0000
  O   O63       1.0  0.22450  0.57850  0.40020  1.0000
  O   O64       1.0  0.05180  0.68640  0.41230  1.0000
  O   O65       1.0  0.30820  0.45030  0.46480  1.0000
  O   O66       1.0  0.77390  0.33180  0.50350  1.0000
  O   O67       1.0  0.84430  0.64950  0.59130  1.0000
  O   O68       1.0  0.15570  0.35050  0.40870  1.0000
  O   O69       1.0  0.92970  0.30610  0.42530  1.0000
  O   O70       1.0  0.77550  0.42150  0.59980  1.0000
  O   O71       1.0  0.10340  0.28430  0.50990  1.0000
  Cu  Cu3       1.0  0.77303  0.34993  0.78911  1.0000
  Cu  Cu4       1.0  0.22697  0.65007  0.21089  1.0000
  O   O72       1.0  0.69180  0.54970  0.53520  1.0000
  O   O73       1.0  0.22610  0.66820  0.49650  1.0000
  W   W19       1.0  0.50245  0.12280  0.86977  1.0000
  O   O74       1.0  0.07030  0.69390  0.57470  1.0000
  W   W20       1.0  0.26227  0.97715  0.88408  1.0000
  W   W21       1.0  0.56526  0.90664  0.86371  1.0000
  W   W22       1.0  0.80363  0.93343  0.97799  1.0000
  O   O75       1.0  0.89660  0.71570  0.49010  1.0000
  W   W23       1.0  0.73653  0.14965  0.98680  1.0000
  W   W24       1.0  0.43156  0.21542  0.00560  1.0000
  O   O76       1.0  0.39160  0.91360  0.85520  1.0000
