data_image0
_chemical_formula_structural       N2O4HCHCHCHC4HCHCHC3N2O4HCHCHCHC4HCHCHC3N2O4HCHCHCHC4HCHCHC3N2O4HCHCHCHC4HCHCHC3O2PO4PO2Mo6O16CuO3CuO2Mo6O3Mo4OMo2O19CuOCuMo6O3
_chemical_formula_sum              "N8 O72 H28 C48 P2 Mo24 Cu4"
_cell_length_a       10.9363
_cell_length_b       16.081
_cell_length_c       22.435
_cell_angle_alpha    90
_cell_angle_beta     94.926
_cell_angle_gamma    90

_space_group_name_H-M_alt    "P 1"
_space_group_IT_number       1

loop_
  _space_group_symop_operation_xyz
  'x, y, z'

loop_
  _atom_site_type_symbol
  _atom_site_label
  _atom_site_symmetry_multiplicity
  _atom_site_fract_x
  _atom_site_fract_y
  _atom_site_fract_z
  _atom_site_occupancy
  N   N1        1.0  0.84040  0.20810  0.77040  1.0000
  N   N2        1.0  0.66020  0.26370  0.70000  1.0000
  O   O1        1.0  0.70620  0.54170  0.76530  1.0000
  O   O2        1.0  0.86430  0.45900  0.78800  1.0000
  O   O3        1.0  0.64390  0.38670  0.85640  1.0000
  O   O4        1.0  0.80560  0.41100  0.91850  1.0000
  H   H1        1.0  0.76080  0.44770  0.92970  1.0000
  C   C1        1.0  0.92790  0.17130  0.80310  1.0000
  H   H2        1.0  0.96290  0.12330  0.78890  1.0000
  C   C2        1.0  0.97130  0.20330  0.86050  1.0000
  H   H3        1.0  0.03860  0.17980  0.88250  1.0000
  C   C3        1.0  0.91040  0.26990  0.88210  1.0000
  H   H4        1.0  0.93200  0.28880  0.92080  1.0000
  C   C4        1.0  0.82000  0.30810  0.84830  1.0000
  C   C5        1.0  0.79200  0.28030  0.78790  1.0000
  C   C6        1.0  0.75180  0.37340  0.87490  1.0000
  C   C7        1.0  0.58540  0.28980  0.65260  1.0000
  H   H5        1.0  0.55010  0.25040  0.62610  1.0000
  C   C8        1.0  0.56030  0.37060  0.64230  1.0000
  H   H6        1.0  0.50610  0.38660  0.61010  1.0000
  C   C9        1.0  0.61530  0.42860  0.67980  1.0000
  H   H7        1.0  0.59940  0.48470  0.67250  1.0000
  C   C10       1.0  0.69420  0.40610  0.72830  1.0000
  C   C11       1.0  0.71200  0.32030  0.73920  1.0000
  C   C12       1.0  0.76080  0.47310  0.76370  1.0000
  N   N3        1.0  0.65960  0.70810  0.72960  1.0000
  N   N4        1.0  0.83980  0.76370  0.80000  1.0000
  O   O5        1.0  0.79380  0.04170  0.73470  1.0000
  O   O6        1.0  0.63570  0.95900  0.71200  1.0000
  O   O7        1.0  0.85610  0.88670  0.64360  1.0000
  O   O8        1.0  0.69440  0.91100  0.58150  1.0000
  H   H8        1.0  0.73920  0.94770  0.57030  1.0000
  C   C13       1.0  0.57210  0.67130  0.69690  1.0000
  H   H9        1.0  0.53710  0.62330  0.71110  1.0000
  C   C14       1.0  0.52870  0.70330  0.63950  1.0000
  H   H10       1.0  0.46140  0.67980  0.61750  1.0000
  C   C15       1.0  0.58960  0.76990  0.61790  1.0000
  H   H11       1.0  0.56800  0.78880  0.57920  1.0000
  C   C16       1.0  0.68000  0.80810  0.65170  1.0000
  C   C17       1.0  0.70800  0.78030  0.71210  1.0000
  C   C18       1.0  0.74820  0.87340  0.62510  1.0000
  C   C19       1.0  0.91460  0.78980  0.84740  1.0000
  H   H12       1.0  0.94990  0.75040  0.87390  1.0000
  C   C20       1.0  0.93970  0.87060  0.85770  1.0000
  H   H13       1.0  0.99390  0.88660  0.88990  1.0000
  C   C21       1.0  0.88470  0.92860  0.82020  1.0000
  H   H14       1.0  0.90060  0.98470  0.82750  1.0000
  C   C22       1.0  0.80580  0.90610  0.77170  1.0000
  C   C23       1.0  0.78800  0.82030  0.76080  1.0000
  C   C24       1.0  0.73920  0.97310  0.73630  1.0000
  N   N5        1.0  0.15960  0.79190  0.22960  1.0000
  N   N6        1.0  0.33980  0.73630  0.30000  1.0000
  O   O9        1.0  0.29380  0.45830  0.23470  1.0000
  O   O10       1.0  0.13570  0.54100  0.21200  1.0000
  O   O11       1.0  0.35610  0.61330  0.14360  1.0000
  O   O12       1.0  0.19440  0.58900  0.08150  1.0000
  H   H15       1.0  0.23920  0.55230  0.07030  1.0000
  C   C25       1.0  0.07210  0.82870  0.19690  1.0000
  H   H16       1.0  0.03710  0.87670  0.21110  1.0000
  C   C26       1.0  0.02870  0.79670  0.13950  1.0000
  H   H17       1.0  0.96140  0.82020  0.11750  1.0000
  C   C27       1.0  0.08960  0.73010  0.11790  1.0000
  H   H18       1.0  0.06800  0.71120  0.07920  1.0000
  C   C28       1.0  0.18000  0.69190  0.15170  1.0000
  C   C29       1.0  0.20800  0.71970  0.21210  1.0000
  C   C30       1.0  0.24820  0.62660  0.12510  1.0000
  C   C31       1.0  0.41460  0.71020  0.34740  1.0000
  H   H19       1.0  0.44990  0.74960  0.37390  1.0000
  C   C32       1.0  0.43970  0.62940  0.35770  1.0000
  H   H20       1.0  0.49390  0.61340  0.38990  1.0000
  C   C33       1.0  0.38470  0.57140  0.32020  1.0000
  H   H21       1.0  0.40060  0.51530  0.32750  1.0000
  C   C34       1.0  0.30580  0.59390  0.27170  1.0000
  C   C35       1.0  0.28800  0.67970  0.26080  1.0000
  C   C36       1.0  0.23920  0.52690  0.23630  1.0000
  N   N7        1.0  0.34040  0.29190  0.27040  1.0000
  N   N8        1.0  0.16020  0.23630  0.20000  1.0000
  O   O13       1.0  0.20620  0.95830  0.26530  1.0000
  O   O14       1.0  0.36430  0.04100  0.28800  1.0000
  O   O15       1.0  0.14390  0.11330  0.35640  1.0000
  O   O16       1.0  0.30560  0.08900  0.41850  1.0000
  H   H22       1.0  0.26080  0.05230  0.42970  1.0000
  C   C37       1.0  0.42790  0.32870  0.30310  1.0000
  H   H23       1.0  0.46290  0.37670  0.28890  1.0000
  C   C38       1.0  0.47130  0.29670  0.36050  1.0000
  H   H24       1.0  0.53860  0.32020  0.38250  1.0000
  C   C39       1.0  0.41040  0.23010  0.38210  1.0000
  H   H25       1.0  0.43200  0.21120  0.42080  1.0000
  C   C40       1.0  0.32000  0.19190  0.34830  1.0000
  C   C41       1.0  0.29200  0.21970  0.28790  1.0000
  C   C42       1.0  0.25180  0.12660  0.37490  1.0000
  C   C43       1.0  0.08540  0.21020  0.15260  1.0000
  H   H26       1.0  0.05010  0.24960  0.12610  1.0000
  C   C44       1.0  0.06030  0.12940  0.14230  1.0000
  H   H27       1.0  0.00610  0.11340  0.11010  1.0000
  C   C45       1.0  0.11530  0.07140  0.17980  1.0000
  H   H28       1.0  0.09940  0.01530  0.17250  1.0000
  C   C46       1.0  0.19420  0.09390  0.22830  1.0000
  C   C47       1.0  0.21200  0.17970  0.23920  1.0000
  C   C48       1.0  0.26080  0.02690  0.26370  1.0000
  O   O17       1.0  0.53150  0.91110  0.97380  1.0000
  O   O18       1.0  0.53310  0.99810  0.06640  1.0000
  P   P1        1.0  0.50000  0.00000  0.00000  1.0000
  O   O19       1.0  0.46850  0.08890  0.02620  1.0000
  O   O20       1.0  0.46690  0.00190  0.93360  1.0000
  O   O21       1.0  0.96850  0.41110  0.52620  1.0000
  O   O22       1.0  0.96690  0.49810  0.43360  1.0000
  P   P2        1.0  0.00000  0.50000  0.50000  1.0000
  O   O23       1.0  0.03150  0.58890  0.47380  1.0000
  O   O24       1.0  0.03310  0.50190  0.56640  1.0000
  Mo  Mo1       1.0  0.73811  0.98393  0.11752  1.0000
  Mo  Mo2       1.0  0.55945  0.09866  0.86365  1.0000
  Mo  Mo3       1.0  0.80248  0.06282  0.97485  1.0000
  Mo  Mo4       1.0  0.51289  0.87947  0.86816  1.0000
  Mo  Mo5       1.0  0.73357  0.84746  0.99220  1.0000
  Mo  Mo6       1.0  0.57526  0.21499  0.99863  1.0000
  O   O25       1.0  0.34890  0.92500  0.85890  1.0000
  O   O26       1.0  0.43110  0.01990  0.15610  1.0000
  O   O27       1.0  0.76380  0.88500  0.06930  1.0000
  O   O28       1.0  0.81450  0.04320  0.06150  1.0000
  O   O29       1.0  0.60790  0.91440  0.14550  1.0000
  O   O30       1.0  0.27600  0.92120  0.10000  1.0000
  O   O31       1.0  0.65110  0.07500  0.14110  1.0000
  O   O32       1.0  0.56890  0.98010  0.84390  1.0000
  O   O33       1.0  0.26880  0.83260  0.00230  1.0000
  O   O34       1.0  0.72400  0.07880  0.90000  1.0000
  O   O35       1.0  0.55230  0.18860  0.91190  1.0000
  O   O36       1.0  0.73120  0.16740  0.99770  1.0000
  O   O37       1.0  0.81160  0.94830  0.96720  1.0000
  O   O38       1.0  0.34180  0.15260  0.09000  1.0000
  O   O39       1.0  0.43230  0.80270  0.92170  1.0000
  O   O40       1.0  0.39750  0.21880  0.99030  1.0000
  Cu  Cu1       1.0  0.27267  0.85040  0.29126  1.0000
  O   O41       1.0  0.65820  0.84740  0.91000  1.0000
  O   O42       1.0  0.56770  0.19730  0.07830  1.0000
  O   O43       1.0  0.60250  0.78120  0.00970  1.0000
  Cu  Cu2       1.0  0.72733  0.14960  0.70874  1.0000
  O   O44       1.0  0.44770  0.81140  0.08810  1.0000
  O   O45       1.0  0.18840  0.05170  0.03280  1.0000
  Mo  Mo7       1.0  0.23811  0.51607  0.61752  1.0000
  Mo  Mo8       1.0  0.05945  0.40134  0.36365  1.0000
  Mo  Mo9       1.0  0.30248  0.43718  0.47485  1.0000
  Mo  Mo10      1.0  0.01289  0.62053  0.36816  1.0000
  Mo  Mo11      1.0  0.23357  0.65254  0.49220  1.0000
  Mo  Mo12      1.0  0.07526  0.28501  0.49863  1.0000
  O   O46       1.0  0.26380  0.61500  0.56930  1.0000
  O   O47       1.0  0.31450  0.45680  0.56150  1.0000
  O   O48       1.0  0.10790  0.58560  0.64550  1.0000
  Mo  Mo13      1.0  0.76189  0.48393  0.38248  1.0000
  Mo  Mo14      1.0  0.94055  0.59866  0.63635  1.0000
  Mo  Mo15      1.0  0.69752  0.56282  0.52515  1.0000
  Mo  Mo16      1.0  0.98711  0.37947  0.63184  1.0000
  O   O49       1.0  0.05230  0.31140  0.41190  1.0000
  Mo  Mo17      1.0  0.76643  0.34746  0.50780  1.0000
  Mo  Mo18      1.0  0.92474  0.71499  0.50137  1.0000
  O   O50       1.0  0.15110  0.42500  0.64110  1.0000
  O   O51       1.0  0.06890  0.51990  0.34390  1.0000
  O   O52       1.0  0.73620  0.38500  0.43070  1.0000
  O   O53       1.0  0.68550  0.54320  0.43850  1.0000
  O   O54       1.0  0.89210  0.41440  0.35450  1.0000
  O   O55       1.0  0.22400  0.42120  0.40000  1.0000
  O   O56       1.0  0.84890  0.57500  0.35890  1.0000
  O   O57       1.0  0.93110  0.48010  0.65610  1.0000
  O   O58       1.0  0.23120  0.33260  0.49770  1.0000
  O   O59       1.0  0.77600  0.57880  0.60000  1.0000
  O   O60       1.0  0.94770  0.68860  0.58810  1.0000
  O   O61       1.0  0.76880  0.66740  0.50230  1.0000
  O   O62       1.0  0.68840  0.44830  0.53280  1.0000
  O   O63       1.0  0.31160  0.55170  0.46720  1.0000
  O   O64       1.0  0.06770  0.30270  0.57830  1.0000
  O   O65       1.0  0.10250  0.71880  0.50970  1.0000
  O   O66       1.0  0.84180  0.34740  0.59000  1.0000
  O   O67       1.0  0.93230  0.69730  0.42170  1.0000
  O   O68       1.0  0.89750  0.28120  0.49030  1.0000
  Cu  Cu3       1.0  0.77267  0.64960  0.79126  1.0000
  O   O69       1.0  0.15820  0.65260  0.41000  1.0000
  Cu  Cu4       1.0  0.22733  0.35040  0.20874  1.0000
  Mo  Mo19      1.0  0.26189  0.01607  0.88248  1.0000
  Mo  Mo20      1.0  0.44055  0.90134  0.13635  1.0000
  Mo  Mo21      1.0  0.19752  0.93718  0.02515  1.0000
  Mo  Mo22      1.0  0.48711  0.12053  0.13184  1.0000
  Mo  Mo23      1.0  0.26643  0.15254  0.00780  1.0000
  Mo  Mo24      1.0  0.42474  0.78501  0.00137  1.0000
  O   O70       1.0  0.23620  0.11500  0.93070  1.0000
  O   O71       1.0  0.18550  0.95680  0.93850  1.0000
  O   O72       1.0  0.39210  0.08560  0.85450  1.0000
