data_image0
_chemical_formula_structural       O4C2O4C2O4C2OCO3CO3COCO4C2O4C2O4C2OCO3CO3COCO4C2O4C2O4C2O4C2O4C2O4C2Tb8
_chemical_formula_sum              "O64 C32 Tb8"
_cell_length_a       9.7909
_cell_length_b       17.2987
_cell_length_c       14.5929
_cell_angle_alpha    90
_cell_angle_beta     97.1322
_cell_angle_gamma    90

_space_group_name_H-M_alt    "P 1"
_space_group_IT_number       1

loop_
  _space_group_symop_operation_xyz
  'x, y, z'

loop_
  _atom_site_type_symbol
  _atom_site_label
  _atom_site_symmetry_multiplicity
  _atom_site_fract_x
  _atom_site_fract_y
  _atom_site_fract_z
  _atom_site_occupancy
  O   O1        1.0  0.39010  0.50080  0.29960  1.0000
  O   O2        1.0  0.41880  0.61710  0.23690  1.0000
  O   O3        1.0  0.62580  0.45300  0.23990  1.0000
  O   O4        1.0  0.63700  0.56380  0.16360  1.0000
  C   C1        1.0  0.45230  0.54880  0.25460  1.0000
  C   C2        1.0  0.58280  0.51850  0.21660  1.0000
  O   O5        1.0  0.25590  0.36610  0.33960  1.0000
  O   O6        1.0  0.08840  0.29200  0.38220  1.0000
  O   O7        1.0  0.43500  0.24970  0.37220  1.0000
  O   O8        1.0  0.26370  0.17360  0.40740  1.0000
  C   C3        1.0  0.20950  0.30490  0.36670  1.0000
  C   C4        1.0  0.31290  0.23560  0.38360  1.0000
  O   O9        1.0  0.84970  0.22010  0.29700  1.0000
  O   O10       1.0  0.66780  0.29970  0.27290  1.0000
  O   O11       1.0  0.85320  0.23850  0.47830  1.0000
  O   O12       1.0  0.68300  0.32620  0.45330  1.0000
  C   C5        1.0  0.76020  0.26510  0.32250  1.0000
  C   C6        1.0  0.76710  0.27740  0.42800  1.0000
  O   O13       1.0  0.57250  0.59120  0.51120  1.0000
  C   C7        1.0  0.55780  0.52420  0.48190  1.0000
  O   O14       1.0  0.42750  0.40880  0.48880  1.0000
  O   O15       1.0  0.37410  0.50950  0.57390  1.0000
  O   O16       1.0  0.62590  0.49050  0.42610  1.0000
  C   C8        1.0  0.44220  0.47580  0.51810  1.0000
  O   O17       1.0  0.91360  0.08440  0.52350  1.0000
  O   O18       1.0  0.87130  0.96210  0.55870  1.0000
  O   O19       1.0  0.08640  0.91560  0.47650  1.0000
  C   C9        1.0  0.93830  0.01340  0.52420  1.0000
  O   O20       1.0  0.12870  0.03790  0.44130  1.0000
  C   C10       1.0  0.06170  0.98660  0.47580  1.0000
  O   O21       1.0  0.10990  0.00080  0.20040  1.0000
  O   O22       1.0  0.08120  0.11710  0.26310  1.0000
  O   O23       1.0  0.87420  0.95300  0.26010  1.0000
  O   O24       1.0  0.86300  0.06380  0.33640  1.0000
  C   C11       1.0  0.04770  0.04880  0.24540  1.0000
  C   C12       1.0  0.91720  0.01850  0.28340  1.0000
  O   O25       1.0  0.24410  0.86610  0.16040  1.0000
  O   O26       1.0  0.41160  0.79200  0.11780  1.0000
  O   O27       1.0  0.06500  0.74970  0.12780  1.0000
  O   O28       1.0  0.23630  0.67360  0.09260  1.0000
  C   C13       1.0  0.29050  0.80490  0.13330  1.0000
  C   C14       1.0  0.18710  0.73560  0.11640  1.0000
  O   O29       1.0  0.65030  0.72010  0.20300  1.0000
  O   O30       1.0  0.83220  0.79970  0.22710  1.0000
  O   O31       1.0  0.64680  0.73850  0.02170  1.0000
  O   O32       1.0  0.81700  0.82620  0.04670  1.0000
  C   C15       1.0  0.73980  0.76510  0.17750  1.0000
  C   C16       1.0  0.73290  0.77740  0.07200  1.0000
  O   O33       1.0  0.92750  0.09120  0.98880  1.0000
  C   C17       1.0  0.05780  0.97580  0.98190  1.0000
  O   O34       1.0  0.07250  0.90880  0.01120  1.0000
  O   O35       1.0  0.12590  0.00950  0.92610  1.0000
  O   O36       1.0  0.87410  0.99050  0.07390  1.0000
  C   C18       1.0  0.94220  0.02420  0.01810  1.0000
  O   O37       1.0  0.58640  0.58440  0.97650  1.0000
  O   O38       1.0  0.62870  0.46210  0.94130  1.0000
  O   O39       1.0  0.41360  0.41560  0.02350  1.0000
  C   C19       1.0  0.56170  0.51340  0.97580  1.0000
  O   O40       1.0  0.37130  0.53790  0.05870  1.0000
  C   C20       1.0  0.43830  0.48660  0.02420  1.0000
  O   O41       1.0  0.60990  0.49920  0.70040  1.0000
  O   O42       1.0  0.58120  0.38290  0.76310  1.0000
  O   O43       1.0  0.37420  0.54700  0.76010  1.0000
  O   O44       1.0  0.36300  0.43620  0.83640  1.0000
  C   C21       1.0  0.54770  0.45120  0.74540  1.0000
  C   C22       1.0  0.41720  0.48150  0.78340  1.0000
  O   O45       1.0  0.74410  0.63390  0.66040  1.0000
  O   O46       1.0  0.91160  0.70800  0.61780  1.0000
  O   O47       1.0  0.56500  0.75030  0.62780  1.0000
  O   O48       1.0  0.73630  0.82640  0.59260  1.0000
  C   C23       1.0  0.79050  0.69510  0.63330  1.0000
  C   C24       1.0  0.68710  0.76440  0.61640  1.0000
  O   O49       1.0  0.15030  0.77990  0.70300  1.0000
  O   O50       1.0  0.33220  0.70030  0.72710  1.0000
  O   O51       1.0  0.14680  0.76150  0.52170  1.0000
  O   O52       1.0  0.31700  0.67380  0.54670  1.0000
  C   C25       1.0  0.23980  0.73490  0.67750  1.0000
  C   C26       1.0  0.23290  0.72260  0.57200  1.0000
  O   O53       1.0  0.89010  0.99920  0.79960  1.0000
  O   O54       1.0  0.91880  0.88290  0.73690  1.0000
  O   O55       1.0  0.12580  0.04700  0.73990  1.0000
  O   O56       1.0  0.13700  0.93620  0.66360  1.0000
  C   C27       1.0  0.95230  0.95120  0.75460  1.0000
  C   C28       1.0  0.08280  0.98150  0.71660  1.0000
  O   O57       1.0  0.75590  0.13390  0.83960  1.0000
  O   O58       1.0  0.58840  0.20800  0.88220  1.0000
  O   O59       1.0  0.93500  0.25030  0.87220  1.0000
  O   O60       1.0  0.76370  0.32640  0.90740  1.0000
  C   C29       1.0  0.70950  0.19510  0.86670  1.0000
  C   C30       1.0  0.81290  0.26440  0.88360  1.0000
  O   O61       1.0  0.34970  0.27990  0.79700  1.0000
  O   O62       1.0  0.16780  0.20030  0.77290  1.0000
  O   O63       1.0  0.35320  0.26150  0.97830  1.0000
  O   O64       1.0  0.18300  0.17380  0.95330  1.0000
  C   C31       1.0  0.26020  0.23490  0.82250  1.0000
  C   C32       1.0  0.26710  0.22260  0.92800  1.0000
  Tb  Tb1       1.0  0.50465  0.37811  0.34159  1.0000
  Tb  Tb2       1.0  0.01903  0.16358  0.41219  1.0000
  Tb  Tb3       1.0  0.99535  0.87811  0.15841  1.0000
  Tb  Tb4       1.0  0.49535  0.62189  0.65841  1.0000
  Tb  Tb5       1.0  0.48097  0.66358  0.08781  1.0000
  Tb  Tb6       1.0  0.98097  0.83642  0.58781  1.0000
  Tb  Tb7       1.0  0.00465  0.12189  0.84159  1.0000
  Tb  Tb8       1.0  0.51903  0.33642  0.91219  1.0000
