data_image0
_chemical_formula_structural       O3HON2C7HCHCHC3H3CH3O3HON2C7HCHCHC3H3CH3O3HON2C7HCHCHC3H3CH3CH3O3HON2C7HCHCHC3H3O3HON2C7HCHCHC3H3CH3O3HON2C7HCHCHC3H3CH3O3HON2C7HCHCHC3H3CH3CH3CH3O3HON2C7HCHCHC2O3HON2C7HCHCHC3H3CH3O3HON2C7HCHCHC3H3CH3O3HON2C7HCHCHC3H3CH3CHC3H3CH3O3HON2C7HCHO3HON2C7HCHCHC3H3CH3O3HON2C7HCHCHC3H3CH3O3HON2C7HCHCHC3H3CH3CHCHCHC3H3CH3O3HON2C6Cu16
_chemical_formula_sum              "O64 H160 N32 C208 Cu16"
_cell_length_a       21.4812
_cell_length_b       21.4812
_cell_length_c       13.263
_cell_angle_alpha    90
_cell_angle_beta     90
_cell_angle_gamma    90

_space_group_name_H-M_alt    "P 1"
_space_group_IT_number       1

loop_
  _space_group_symop_operation_xyz
  'x, y, z'

loop_
  _atom_site_type_symbol
  _atom_site_label
  _atom_site_symmetry_multiplicity
  _atom_site_fract_x
  _atom_site_fract_y
  _atom_site_fract_z
  _atom_site_occupancy
  O   O1        1.0  0.16309  0.22650  0.33335  1.0000
  O   O2        1.0  0.12289  0.29345  0.22170  1.0000
  O   O3        1.0  0.26106  0.22542  0.44630  1.0000
  H   H1        1.0  0.22780  0.22640  0.41600  1.0000
  O   O4        1.0  0.33945  0.29046  0.47760  1.0000
  N   N1        1.0  0.29127  0.38156  0.35410  1.0000
  N   N2        1.0  0.20354  0.38246  0.26430  1.0000
  C   C1        1.0  0.25398  0.41549  0.29250  1.0000
  C   C2        1.0  0.26220  0.32560  0.36740  1.0000
  C   C3        1.0  0.20865  0.32642  0.31170  1.0000
  C   C4        1.0  0.16230  0.27820  0.28990  1.0000
  C   C5        1.0  0.29050  0.27920  0.43420  1.0000
  C   C6        1.0  0.26697  0.48099  0.27020  1.0000
  C   C7        1.0  0.32780  0.50190  0.26170  1.0000
  H   H2        1.0  0.36050  0.47360  0.26340  1.0000
  C   C8        1.0  0.21880  0.52423  0.26570  1.0000
  H   H3        1.0  0.17790  0.51050  0.27210  1.0000
  C   C9        1.0  0.33990  0.56490  0.25080  1.0000
  H   H4        1.0  0.38080  0.57870  0.24590  1.0000
  C   C10       1.0  0.23010  0.58740  0.25210  1.0000
  C   C11       1.0  0.29110  0.60820  0.24710  1.0000
  C   C12       1.0  0.17610  0.63220  0.24530  1.0000
  H   H5        1.0  0.17640  0.65230  0.18060  1.0000
  H   H6        1.0  0.17980  0.66300  0.29740  1.0000
  H   H7        1.0  0.13770  0.60980  0.25360  1.0000
  C   C13       1.0  0.30600  0.67710  0.23540  1.0000
  H   H8        1.0  0.35030  0.68260  0.23240  1.0000
  H   H9        1.0  0.28960  0.69960  0.29210  1.0000
  H   H10       1.0  0.28750  0.69250  0.17450  1.0000
  O   O5        1.0  0.66309  0.72650  0.83335  1.0000
  O   O6        1.0  0.62289  0.79345  0.72170  1.0000
  O   O7        1.0  0.76106  0.72542  0.94630  1.0000
  H   H11       1.0  0.72780  0.72640  0.91600  1.0000
  O   O8        1.0  0.83945  0.79046  0.97760  1.0000
  N   N3        1.0  0.79127  0.88156  0.85410  1.0000
  N   N4        1.0  0.70354  0.88246  0.76430  1.0000
  C   C14       1.0  0.75398  0.91549  0.79250  1.0000
  C   C15       1.0  0.76220  0.82560  0.86740  1.0000
  C   C16       1.0  0.70865  0.82642  0.81170  1.0000
  C   C17       1.0  0.66230  0.77820  0.78990  1.0000
  C   C18       1.0  0.79050  0.77920  0.93420  1.0000
  C   C19       1.0  0.76697  0.98099  0.77020  1.0000
  C   C20       1.0  0.82780  0.00190  0.76170  1.0000
  H   H12       1.0  0.86050  0.97360  0.76340  1.0000
  C   C21       1.0  0.71880  0.02423  0.76570  1.0000
  H   H13       1.0  0.67790  0.01050  0.77210  1.0000
  C   C22       1.0  0.83990  0.06490  0.75080  1.0000
  H   H14       1.0  0.88080  0.07870  0.74590  1.0000
  C   C23       1.0  0.73010  0.08740  0.75210  1.0000
  C   C24       1.0  0.79110  0.10820  0.74710  1.0000
  C   C25       1.0  0.67610  0.13220  0.74530  1.0000
  H   H15       1.0  0.67640  0.15230  0.68060  1.0000
  H   H16       1.0  0.67980  0.16300  0.79740  1.0000
  H   H17       1.0  0.63770  0.10980  0.75360  1.0000
  C   C26       1.0  0.80600  0.17710  0.73540  1.0000
  H   H18       1.0  0.85030  0.18260  0.73240  1.0000
  H   H19       1.0  0.78960  0.19960  0.79210  1.0000
  H   H20       1.0  0.78750  0.19250  0.67450  1.0000
  O   O9        1.0  0.33691  0.77350  0.83335  1.0000
  O   O10       1.0  0.37711  0.70655  0.72170  1.0000
  O   O11       1.0  0.23894  0.77458  0.94630  1.0000
  H   H21       1.0  0.27220  0.77360  0.91600  1.0000
  O   O12       1.0  0.16055  0.70954  0.97760  1.0000
  N   N5        1.0  0.20873  0.61844  0.85410  1.0000
  N   N6        1.0  0.29646  0.61754  0.76430  1.0000
  C   C27       1.0  0.24602  0.58451  0.79250  1.0000
  C   C28       1.0  0.23780  0.67440  0.86740  1.0000
  C   C29       1.0  0.29135  0.67358  0.81170  1.0000
  C   C30       1.0  0.33770  0.72180  0.78990  1.0000
  C   C31       1.0  0.20950  0.72080  0.93420  1.0000
  C   C32       1.0  0.23303  0.51901  0.77020  1.0000
  C   C33       1.0  0.17220  0.49810  0.76170  1.0000
  H   H22       1.0  0.13950  0.52640  0.76340  1.0000
  C   C34       1.0  0.28120  0.47577  0.76570  1.0000
  H   H23       1.0  0.32210  0.48950  0.77210  1.0000
  C   C35       1.0  0.16010  0.43510  0.75080  1.0000
  H   H24       1.0  0.11920  0.42130  0.74590  1.0000
  C   C36       1.0  0.26990  0.41260  0.75210  1.0000
  C   C37       1.0  0.20890  0.39180  0.74710  1.0000
  C   C38       1.0  0.32390  0.36780  0.74530  1.0000
  H   H25       1.0  0.32360  0.34770  0.68060  1.0000
  H   H26       1.0  0.32020  0.33700  0.79740  1.0000
  H   H27       1.0  0.36230  0.39020  0.75360  1.0000
  C   C39       1.0  0.19400  0.32290  0.73540  1.0000
  H   H28       1.0  0.14970  0.31740  0.73240  1.0000
  H   H29       1.0  0.21040  0.30040  0.79210  1.0000
  H   H30       1.0  0.21250  0.30750  0.67450  1.0000
  C   C40       1.0  0.69400  0.82290  0.23540  1.0000
  H   H31       1.0  0.64970  0.81740  0.23240  1.0000
  H   H32       1.0  0.71040  0.80040  0.29210  1.0000
  H   H33       1.0  0.71250  0.80750  0.17450  1.0000
  O   O13       1.0  0.83691  0.27350  0.33335  1.0000
  O   O14       1.0  0.87711  0.20655  0.22170  1.0000
  O   O15       1.0  0.73894  0.27458  0.44630  1.0000
  H   H34       1.0  0.77220  0.27360  0.41600  1.0000
  O   O16       1.0  0.66055  0.20954  0.47760  1.0000
  N   N7        1.0  0.70873  0.11844  0.35410  1.0000
  N   N8        1.0  0.79646  0.11754  0.26430  1.0000
  C   C41       1.0  0.74602  0.08451  0.29250  1.0000
  C   C42       1.0  0.73780  0.17440  0.36740  1.0000
  C   C43       1.0  0.79135  0.17358  0.31170  1.0000
  C   C44       1.0  0.83770  0.22180  0.28990  1.0000
  C   C45       1.0  0.70950  0.22080  0.43420  1.0000
  C   C46       1.0  0.73303  0.01901  0.27020  1.0000
  C   C47       1.0  0.67220  0.99810  0.26170  1.0000
  H   H35       1.0  0.63950  0.02640  0.26340  1.0000
  C   C48       1.0  0.78120  0.97577  0.26570  1.0000
  H   H36       1.0  0.82210  0.98950  0.27210  1.0000
  C   C49       1.0  0.66010  0.93510  0.25080  1.0000
  H   H37       1.0  0.61920  0.92130  0.24590  1.0000
  C   C50       1.0  0.76990  0.91260  0.25210  1.0000
  C   C51       1.0  0.70890  0.89180  0.24710  1.0000
  C   C52       1.0  0.82390  0.86780  0.24530  1.0000
  H   H38       1.0  0.82360  0.84770  0.18060  1.0000
  H   H39       1.0  0.82020  0.83700  0.29740  1.0000
  H   H40       1.0  0.86230  0.89020  0.25360  1.0000
  O   O17       1.0  0.52350  0.41309  0.58335  1.0000
  O   O18       1.0  0.45655  0.37289  0.47170  1.0000
  O   O19       1.0  0.52458  0.51106  0.69630  1.0000
  H   H41       1.0  0.52360  0.47780  0.66600  1.0000
  O   O20       1.0  0.45954  0.58945  0.72760  1.0000
  N   N9        1.0  0.36844  0.54127  0.60410  1.0000
  N   N10       1.0  0.36754  0.45354  0.51430  1.0000
  C   C53       1.0  0.33451  0.50398  0.54250  1.0000
  C   C54       1.0  0.42440  0.51220  0.61740  1.0000
  C   C55       1.0  0.42358  0.45865  0.56170  1.0000
  C   C56       1.0  0.47180  0.41230  0.53990  1.0000
  C   C57       1.0  0.47080  0.54050  0.68420  1.0000
  C   C58       1.0  0.26901  0.51697  0.52020  1.0000
  C   C59       1.0  0.24810  0.57780  0.51170  1.0000
  H   H42       1.0  0.27640  0.61050  0.51340  1.0000
  C   C60       1.0  0.22577  0.46880  0.51570  1.0000
  H   H43       1.0  0.23950  0.42790  0.52210  1.0000
  C   C61       1.0  0.18510  0.58990  0.50080  1.0000
  H   H44       1.0  0.17130  0.63080  0.49590  1.0000
  C   C62       1.0  0.16260  0.48010  0.50210  1.0000
  C   C63       1.0  0.14180  0.54110  0.49710  1.0000
  C   C64       1.0  0.11780  0.42610  0.49530  1.0000
  H   H45       1.0  0.09770  0.42640  0.43060  1.0000
  H   H46       1.0  0.08700  0.42980  0.54740  1.0000
  H   H47       1.0  0.14020  0.38770  0.50360  1.0000
  C   C65       1.0  0.07290  0.55600  0.48540  1.0000
  H   H48       1.0  0.06740  0.60030  0.48240  1.0000
  H   H49       1.0  0.05040  0.53960  0.54210  1.0000
  H   H50       1.0  0.05750  0.53750  0.42450  1.0000
  O   O21       1.0  0.02350  0.91309  0.08335  1.0000
  O   O22       1.0  0.95655  0.87289  0.97170  1.0000
  O   O23       1.0  0.02458  0.01106  0.19630  1.0000
  H   H51       1.0  0.02360  0.97780  0.16600  1.0000
  O   O24       1.0  0.95954  0.08945  0.22760  1.0000
  N   N11       1.0  0.86844  0.04127  0.10410  1.0000
  N   N12       1.0  0.86754  0.95354  0.01430  1.0000
  C   C66       1.0  0.83451  0.00398  0.04250  1.0000
  C   C67       1.0  0.92440  0.01220  0.11740  1.0000
  C   C68       1.0  0.92358  0.95865  0.06170  1.0000
  C   C69       1.0  0.97180  0.91230  0.03990  1.0000
  C   C70       1.0  0.97080  0.04050  0.18420  1.0000
  C   C71       1.0  0.76901  0.01697  0.02020  1.0000
  C   C72       1.0  0.74810  0.07780  0.01170  1.0000
  H   H52       1.0  0.77640  0.11050  0.01340  1.0000
  C   C73       1.0  0.72577  0.96880  0.01570  1.0000
  H   H53       1.0  0.73950  0.92790  0.02210  1.0000
  C   C74       1.0  0.68510  0.08990  0.00080  1.0000
  H   H54       1.0  0.67130  0.13080  0.99590  1.0000
  C   C75       1.0  0.66260  0.98010  0.00210  1.0000
  C   C76       1.0  0.64180  0.04110  0.99710  1.0000
  C   C77       1.0  0.61780  0.92610  0.99530  1.0000
  H   H55       1.0  0.59770  0.92640  0.93060  1.0000
  H   H56       1.0  0.58700  0.92980  0.04740  1.0000
  H   H57       1.0  0.64020  0.88770  0.00360  1.0000
  C   C78       1.0  0.57290  0.05600  0.98540  1.0000
  H   H58       1.0  0.56740  0.10030  0.98240  1.0000
  H   H59       1.0  0.55040  0.03960  0.04210  1.0000
  H   H60       1.0  0.55750  0.03750  0.92450  1.0000
  O   O25       1.0  0.97650  0.58691  0.08335  1.0000
  O   O26       1.0  0.04345  0.62711  0.97170  1.0000
  O   O27       1.0  0.97542  0.48894  0.19630  1.0000
  H   H61       1.0  0.97640  0.52220  0.16600  1.0000
  O   O28       1.0  0.04046  0.41055  0.22760  1.0000
  N   N13       1.0  0.13156  0.45873  0.10410  1.0000
  N   N14       1.0  0.13246  0.54646  0.01430  1.0000
  C   C79       1.0  0.16549  0.49602  0.04250  1.0000
  C   C80       1.0  0.07560  0.48780  0.11740  1.0000
  C   C81       1.0  0.07642  0.54135  0.06170  1.0000
  C   C82       1.0  0.02820  0.58770  0.03990  1.0000
  C   C83       1.0  0.02920  0.45950  0.18420  1.0000
  C   C84       1.0  0.23099  0.48303  0.02020  1.0000
  C   C85       1.0  0.25190  0.42220  0.01170  1.0000
  H   H62       1.0  0.22360  0.38950  0.01340  1.0000
  C   C86       1.0  0.27423  0.53120  0.01570  1.0000
  H   H63       1.0  0.26050  0.57210  0.02210  1.0000
  C   C87       1.0  0.31490  0.41010  0.00080  1.0000
  H   H64       1.0  0.32870  0.36920  0.99590  1.0000
  C   C88       1.0  0.33740  0.51990  0.00210  1.0000
  C   C89       1.0  0.35820  0.45890  0.99710  1.0000
  C   C90       1.0  0.38220  0.57390  0.99530  1.0000
  H   H65       1.0  0.40230  0.57360  0.93060  1.0000
  H   H66       1.0  0.41300  0.57020  0.04740  1.0000
  H   H67       1.0  0.35980  0.61230  0.00360  1.0000
  C   C91       1.0  0.42710  0.44400  0.98540  1.0000
  H   H68       1.0  0.43260  0.39970  0.98240  1.0000
  H   H69       1.0  0.44960  0.46040  0.04210  1.0000
  H   H70       1.0  0.44250  0.46250  0.92450  1.0000
  C   C92       1.0  0.88220  0.07390  0.49530  1.0000
  H   H71       1.0  0.90230  0.07360  0.43060  1.0000
  H   H72       1.0  0.91300  0.07020  0.54740  1.0000
  H   H73       1.0  0.85980  0.11230  0.50360  1.0000
  C   C93       1.0  0.92710  0.94400  0.48540  1.0000
  H   H74       1.0  0.93260  0.89970  0.48240  1.0000
  H   H75       1.0  0.94960  0.96040  0.54210  1.0000
  H   H76       1.0  0.94250  0.96250  0.42450  1.0000
  O   O29       1.0  0.47650  0.08691  0.58335  1.0000
  O   O30       1.0  0.54345  0.12711  0.47170  1.0000
  O   O31       1.0  0.47542  0.98894  0.69630  1.0000
  H   H77       1.0  0.47640  0.02220  0.66600  1.0000
  O   O32       1.0  0.54046  0.91055  0.72760  1.0000
  N   N15       1.0  0.63156  0.95873  0.60410  1.0000
  N   N16       1.0  0.63246  0.04646  0.51430  1.0000
  C   C94       1.0  0.66549  0.99602  0.54250  1.0000
  C   C95       1.0  0.57560  0.98780  0.61740  1.0000
  C   C96       1.0  0.57642  0.04135  0.56170  1.0000
  C   C97       1.0  0.52820  0.08770  0.53990  1.0000
  C   C98       1.0  0.52920  0.95950  0.68420  1.0000
  C   C99       1.0  0.73099  0.98303  0.52020  1.0000
  C   C100      1.0  0.75190  0.92220  0.51170  1.0000
  H   H78       1.0  0.72360  0.88950  0.51340  1.0000
  C   C101      1.0  0.77423  0.03120  0.51570  1.0000
  H   H79       1.0  0.76050  0.07210  0.52210  1.0000
  C   C102      1.0  0.81490  0.91010  0.50080  1.0000
  H   H80       1.0  0.82870  0.86920  0.49590  1.0000
  C   C103      1.0  0.83740  0.01990  0.50210  1.0000
  C   C104      1.0  0.85820  0.95890  0.49710  1.0000
  O   O33       1.0  0.83691  0.77350  0.66665  1.0000
  O   O34       1.0  0.87711  0.70655  0.77830  1.0000
  O   O35       1.0  0.73894  0.77458  0.55370  1.0000
  H   H81       1.0  0.77220  0.77360  0.58400  1.0000
  O   O36       1.0  0.66055  0.70954  0.52240  1.0000
  N   N17       1.0  0.70873  0.61844  0.64590  1.0000
  N   N18       1.0  0.79646  0.61754  0.73570  1.0000
  C   C105      1.0  0.74602  0.58451  0.70750  1.0000
  C   C106      1.0  0.73780  0.67440  0.63260  1.0000
  C   C107      1.0  0.79135  0.67358  0.68830  1.0000
  C   C108      1.0  0.83770  0.72180  0.71010  1.0000
  C   C109      1.0  0.70950  0.72080  0.56580  1.0000
  C   C110      1.0  0.73303  0.51901  0.72980  1.0000
  C   C111      1.0  0.67220  0.49810  0.73830  1.0000
  H   H82       1.0  0.63950  0.52640  0.73660  1.0000
  C   C112      1.0  0.78120  0.47577  0.73430  1.0000
  H   H83       1.0  0.82210  0.48950  0.72790  1.0000
  C   C113      1.0  0.66010  0.43510  0.74920  1.0000
  H   H84       1.0  0.61920  0.42130  0.75410  1.0000
  C   C114      1.0  0.76990  0.41260  0.74790  1.0000
  C   C115      1.0  0.70890  0.39180  0.75290  1.0000
  C   C116      1.0  0.82390  0.36780  0.75470  1.0000
  H   H85       1.0  0.82360  0.34770  0.81940  1.0000
  H   H86       1.0  0.82020  0.33700  0.70260  1.0000
  H   H87       1.0  0.86230  0.39020  0.74640  1.0000
  C   C117      1.0  0.69400  0.32290  0.76460  1.0000
  H   H88       1.0  0.64970  0.31740  0.76760  1.0000
  H   H89       1.0  0.71040  0.30040  0.70790  1.0000
  H   H90       1.0  0.71250  0.30750  0.82550  1.0000
  O   O37       1.0  0.33691  0.27350  0.16665  1.0000
  O   O38       1.0  0.37711  0.20655  0.27830  1.0000
  O   O39       1.0  0.23894  0.27458  0.05370  1.0000
  H   H91       1.0  0.27220  0.27360  0.08400  1.0000
  O   O40       1.0  0.16055  0.20954  0.02240  1.0000
  N   N19       1.0  0.20873  0.11844  0.14590  1.0000
  N   N20       1.0  0.29646  0.11754  0.23570  1.0000
  C   C118      1.0  0.24602  0.08451  0.20750  1.0000
  C   C119      1.0  0.23780  0.17440  0.13260  1.0000
  C   C120      1.0  0.29135  0.17358  0.18830  1.0000
  C   C121      1.0  0.33770  0.22180  0.21010  1.0000
  C   C122      1.0  0.20950  0.22080  0.06580  1.0000
  C   C123      1.0  0.23303  0.01901  0.22980  1.0000
  C   C124      1.0  0.17220  0.99810  0.23830  1.0000
  H   H92       1.0  0.13950  0.02640  0.23660  1.0000
  C   C125      1.0  0.28120  0.97577  0.23430  1.0000
  H   H93       1.0  0.32210  0.98950  0.22790  1.0000
  C   C126      1.0  0.16010  0.93510  0.24920  1.0000
  H   H94       1.0  0.11920  0.92130  0.25410  1.0000
  C   C127      1.0  0.26990  0.91260  0.24790  1.0000
  C   C128      1.0  0.20890  0.89180  0.25290  1.0000
  C   C129      1.0  0.32390  0.86780  0.25470  1.0000
  H   H95       1.0  0.32360  0.84770  0.31940  1.0000
  H   H96       1.0  0.32020  0.83700  0.20260  1.0000
  H   H97       1.0  0.36230  0.89020  0.24640  1.0000
  C   C130      1.0  0.19400  0.82290  0.26460  1.0000
  H   H98       1.0  0.14970  0.81740  0.26760  1.0000
  H   H99       1.0  0.21040  0.80040  0.20790  1.0000
  H   H100      1.0  0.21250  0.80750  0.32550  1.0000
  O   O41       1.0  0.66309  0.22650  0.16665  1.0000
  O   O42       1.0  0.62289  0.29345  0.27830  1.0000
  O   O43       1.0  0.76106  0.22542  0.05370  1.0000
  H   H101      1.0  0.72780  0.22640  0.08400  1.0000
  O   O44       1.0  0.83945  0.29046  0.02240  1.0000
  N   N21       1.0  0.79127  0.38156  0.14590  1.0000
  N   N22       1.0  0.70354  0.38246  0.23570  1.0000
  C   C131      1.0  0.75398  0.41549  0.20750  1.0000
  C   C132      1.0  0.76220  0.32560  0.13260  1.0000
  C   C133      1.0  0.70865  0.32642  0.18830  1.0000
  C   C134      1.0  0.66230  0.27820  0.21010  1.0000
  C   C135      1.0  0.79050  0.27920  0.06580  1.0000
  C   C136      1.0  0.76697  0.48099  0.22980  1.0000
  C   C137      1.0  0.82780  0.50190  0.23830  1.0000
  H   H102      1.0  0.86050  0.47360  0.23660  1.0000
  C   C138      1.0  0.71880  0.52423  0.23430  1.0000
  H   H103      1.0  0.67790  0.51050  0.22790  1.0000
  C   C139      1.0  0.83990  0.56490  0.24920  1.0000
  H   H104      1.0  0.88080  0.57870  0.25410  1.0000
  C   C140      1.0  0.73010  0.58740  0.24790  1.0000
  C   C141      1.0  0.79110  0.60820  0.25290  1.0000
  C   C142      1.0  0.67610  0.63220  0.25470  1.0000
  H   H105      1.0  0.67640  0.65230  0.31940  1.0000
  H   H106      1.0  0.67980  0.66300  0.20260  1.0000
  H   H107      1.0  0.63770  0.60980  0.24640  1.0000
  C   C143      1.0  0.80600  0.67710  0.26460  1.0000
  H   H108      1.0  0.85030  0.68260  0.26760  1.0000
  H   H109      1.0  0.78960  0.69960  0.20790  1.0000
  H   H110      1.0  0.78750  0.69250  0.32550  1.0000
  C   C144      1.0  0.33990  0.06490  0.74920  1.0000
  H   H111      1.0  0.38080  0.07870  0.75410  1.0000
  C   C145      1.0  0.23010  0.08740  0.74790  1.0000
  C   C146      1.0  0.29110  0.10820  0.75290  1.0000
  C   C147      1.0  0.17610  0.13220  0.75470  1.0000
  H   H112      1.0  0.17640  0.15230  0.81940  1.0000
  H   H113      1.0  0.17980  0.16300  0.70260  1.0000
  H   H114      1.0  0.13770  0.10980  0.74640  1.0000
  C   C148      1.0  0.30600  0.17710  0.76460  1.0000
  H   H115      1.0  0.35030  0.18260  0.76760  1.0000
  H   H116      1.0  0.28960  0.19960  0.70790  1.0000
  H   H117      1.0  0.28750  0.19250  0.82550  1.0000
  O   O45       1.0  0.16309  0.72650  0.66665  1.0000
  O   O46       1.0  0.12289  0.79345  0.77830  1.0000
  O   O47       1.0  0.26106  0.72542  0.55370  1.0000
  H   H118      1.0  0.22780  0.72640  0.58400  1.0000
  O   O48       1.0  0.33945  0.79046  0.52240  1.0000
  N   N23       1.0  0.29127  0.88156  0.64590  1.0000
  N   N24       1.0  0.20354  0.88246  0.73570  1.0000
  C   C149      1.0  0.25398  0.91549  0.70750  1.0000
  C   C150      1.0  0.26220  0.82560  0.63260  1.0000
  C   C151      1.0  0.20865  0.82642  0.68830  1.0000
  C   C152      1.0  0.16230  0.77820  0.71010  1.0000
  C   C153      1.0  0.29050  0.77920  0.56580  1.0000
  C   C154      1.0  0.26697  0.98099  0.72980  1.0000
  C   C155      1.0  0.32780  0.00190  0.73830  1.0000
  H   H119      1.0  0.36050  0.97360  0.73660  1.0000
  C   C156      1.0  0.21880  0.02423  0.73430  1.0000
  H   H120      1.0  0.17790  0.01050  0.72790  1.0000
  O   O49       1.0  0.47650  0.58691  0.41665  1.0000
  O   O50       1.0  0.54345  0.62711  0.52830  1.0000
  O   O51       1.0  0.47542  0.48894  0.30370  1.0000
  H   H121      1.0  0.47640  0.52220  0.33400  1.0000
  O   O52       1.0  0.54046  0.41055  0.27240  1.0000
  N   N25       1.0  0.63156  0.45873  0.39590  1.0000
  N   N26       1.0  0.63246  0.54646  0.48570  1.0000
  C   C157      1.0  0.66549  0.49602  0.45750  1.0000
  C   C158      1.0  0.57560  0.48780  0.38260  1.0000
  C   C159      1.0  0.57642  0.54135  0.43830  1.0000
  C   C160      1.0  0.52820  0.58770  0.46010  1.0000
  C   C161      1.0  0.52920  0.45950  0.31580  1.0000
  C   C162      1.0  0.73099  0.48303  0.47980  1.0000
  C   C163      1.0  0.75190  0.42220  0.48830  1.0000
  H   H122      1.0  0.72360  0.38950  0.48660  1.0000
  C   C164      1.0  0.77423  0.53120  0.48430  1.0000
  H   H123      1.0  0.76050  0.57210  0.47790  1.0000
  C   C165      1.0  0.81490  0.41010  0.49920  1.0000
  H   H124      1.0  0.82870  0.36920  0.50410  1.0000
  C   C166      1.0  0.83740  0.51990  0.49790  1.0000
  C   C167      1.0  0.85820  0.45890  0.50290  1.0000
  C   C168      1.0  0.88220  0.57390  0.50470  1.0000
  H   H125      1.0  0.90230  0.57360  0.56940  1.0000
  H   H126      1.0  0.91300  0.57020  0.45260  1.0000
  H   H127      1.0  0.85980  0.61230  0.49640  1.0000
  C   C169      1.0  0.92710  0.44400  0.51460  1.0000
  H   H128      1.0  0.93260  0.39970  0.51760  1.0000
  H   H129      1.0  0.94960  0.46040  0.45790  1.0000
  H   H130      1.0  0.94250  0.46250  0.57550  1.0000
  O   O53       1.0  0.97650  0.08691  0.91665  1.0000
  O   O54       1.0  0.04345  0.12711  0.02830  1.0000
  O   O55       1.0  0.97542  0.98894  0.80370  1.0000
  H   H131      1.0  0.97640  0.02220  0.83400  1.0000
  O   O56       1.0  0.04046  0.91055  0.77240  1.0000
  N   N27       1.0  0.13156  0.95873  0.89590  1.0000
  N   N28       1.0  0.13246  0.04646  0.98570  1.0000
  C   C170      1.0  0.16549  0.99602  0.95750  1.0000
  C   C171      1.0  0.07560  0.98780  0.88260  1.0000
  C   C172      1.0  0.07642  0.04135  0.93830  1.0000
  C   C173      1.0  0.02820  0.08770  0.96010  1.0000
  C   C174      1.0  0.02920  0.95950  0.81580  1.0000
  C   C175      1.0  0.23099  0.98303  0.97980  1.0000
  C   C176      1.0  0.25190  0.92220  0.98830  1.0000
  H   H132      1.0  0.22360  0.88950  0.98660  1.0000
  C   C177      1.0  0.27423  0.03120  0.98430  1.0000
  H   H133      1.0  0.26050  0.07210  0.97790  1.0000
  C   C178      1.0  0.31490  0.91010  0.99920  1.0000
  H   H134      1.0  0.32870  0.86920  0.00410  1.0000
  C   C179      1.0  0.33740  0.01990  0.99790  1.0000
  C   C180      1.0  0.35820  0.95890  0.00290  1.0000
  C   C181      1.0  0.38220  0.07390  0.00470  1.0000
  H   H135      1.0  0.40230  0.07360  0.06940  1.0000
  H   H136      1.0  0.41300  0.07020  0.95260  1.0000
  H   H137      1.0  0.35980  0.11230  0.99640  1.0000
  C   C182      1.0  0.42710  0.94400  0.01460  1.0000
  H   H138      1.0  0.43260  0.89970  0.01760  1.0000
  H   H139      1.0  0.44960  0.96040  0.95790  1.0000
  H   H140      1.0  0.44250  0.96250  0.07550  1.0000
  O   O57       1.0  0.02350  0.41309  0.91665  1.0000
  O   O58       1.0  0.95655  0.37289  0.02830  1.0000
  O   O59       1.0  0.02458  0.51106  0.80370  1.0000
  H   H141      1.0  0.02360  0.47780  0.83400  1.0000
  O   O60       1.0  0.95954  0.58945  0.77240  1.0000
  N   N29       1.0  0.86844  0.54127  0.89590  1.0000
  N   N30       1.0  0.86754  0.45354  0.98570  1.0000
  C   C183      1.0  0.83451  0.50398  0.95750  1.0000
  C   C184      1.0  0.92440  0.51220  0.88260  1.0000
  C   C185      1.0  0.92358  0.45865  0.93830  1.0000
  C   C186      1.0  0.97180  0.41230  0.96010  1.0000
  C   C187      1.0  0.97080  0.54050  0.81580  1.0000
  C   C188      1.0  0.76901  0.51697  0.97980  1.0000
  C   C189      1.0  0.74810  0.57780  0.98830  1.0000
  H   H142      1.0  0.77640  0.61050  0.98660  1.0000
  C   C190      1.0  0.72577  0.46880  0.98430  1.0000
  H   H143      1.0  0.73950  0.42790  0.97790  1.0000
  C   C191      1.0  0.68510  0.58990  0.99920  1.0000
  H   H144      1.0  0.67130  0.63080  0.00410  1.0000
  C   C192      1.0  0.66260  0.48010  0.99790  1.0000
  C   C193      1.0  0.64180  0.54110  0.00290  1.0000
  C   C194      1.0  0.61780  0.42610  0.00470  1.0000
  H   H145      1.0  0.59770  0.42640  0.06940  1.0000
  H   H146      1.0  0.58700  0.42980  0.95260  1.0000
  H   H147      1.0  0.64020  0.38770  0.99640  1.0000
  C   C195      1.0  0.57290  0.55600  0.01460  1.0000
  H   H148      1.0  0.56740  0.60030  0.01760  1.0000
  H   H149      1.0  0.55040  0.53960  0.95790  1.0000
  H   H150      1.0  0.55750  0.53750  0.07550  1.0000
  C   C196      1.0  0.24810  0.07780  0.48830  1.0000
  H   H151      1.0  0.27640  0.11050  0.48660  1.0000
  C   C197      1.0  0.22577  0.96880  0.48430  1.0000
  H   H152      1.0  0.23950  0.92790  0.47790  1.0000
  C   C198      1.0  0.18510  0.08990  0.49920  1.0000
  H   H153      1.0  0.17130  0.13080  0.50410  1.0000
  C   C199      1.0  0.16260  0.98010  0.49790  1.0000
  C   C200      1.0  0.14180  0.04110  0.50290  1.0000
  C   C201      1.0  0.11780  0.92610  0.50470  1.0000
  H   H154      1.0  0.09770  0.92640  0.56940  1.0000
  H   H155      1.0  0.08700  0.92980  0.45260  1.0000
  H   H156      1.0  0.14020  0.88770  0.49640  1.0000
  C   C202      1.0  0.07290  0.05600  0.51460  1.0000
  H   H157      1.0  0.06740  0.10030  0.51760  1.0000
  H   H158      1.0  0.05040  0.03960  0.45790  1.0000
  H   H159      1.0  0.05750  0.03750  0.57550  1.0000
  O   O61       1.0  0.52350  0.91309  0.41665  1.0000
  O   O62       1.0  0.45655  0.87289  0.52830  1.0000
  O   O63       1.0  0.52458  0.01106  0.30370  1.0000
  H   H160      1.0  0.52360  0.97780  0.33400  1.0000
  O   O64       1.0  0.45954  0.08945  0.27240  1.0000
  N   N31       1.0  0.36844  0.04127  0.39590  1.0000
  N   N32       1.0  0.36754  0.95354  0.48570  1.0000
  C   C203      1.0  0.33451  0.00398  0.45750  1.0000
  C   C204      1.0  0.42440  0.01220  0.38260  1.0000
  C   C205      1.0  0.42358  0.95865  0.43830  1.0000
  C   C206      1.0  0.47180  0.91230  0.46010  1.0000
  C   C207      1.0  0.47080  0.04050  0.31580  1.0000
  C   C208      1.0  0.26901  0.01697  0.47980  1.0000
  Cu  Cu1       1.0  0.13628  0.37524  0.16160  1.0000
  Cu  Cu2       1.0  0.36372  0.62476  0.66160  1.0000
  Cu  Cu3       1.0  0.37476  0.38628  0.41160  1.0000
  Cu  Cu4       1.0  0.12524  0.61372  0.91160  1.0000
  Cu  Cu5       1.0  0.86372  0.62476  0.83840  1.0000
  Cu  Cu6       1.0  0.63628  0.37524  0.33840  1.0000
  Cu  Cu7       1.0  0.62524  0.61372  0.58840  1.0000
  Cu  Cu8       1.0  0.87476  0.38628  0.08840  1.0000
  Cu  Cu9       1.0  0.63628  0.87524  0.66160  1.0000
  Cu  Cu10      1.0  0.86372  0.12476  0.16160  1.0000
  Cu  Cu11      1.0  0.87476  0.88628  0.91160  1.0000
  Cu  Cu12      1.0  0.62524  0.11372  0.41160  1.0000
  Cu  Cu13      1.0  0.36372  0.12476  0.33840  1.0000
  Cu  Cu14      1.0  0.13628  0.87524  0.83840  1.0000
  Cu  Cu15      1.0  0.12524  0.11372  0.08840  1.0000
  Cu  Cu16      1.0  0.37476  0.88628  0.58840  1.0000
