data_image0
_chemical_formula_structural       N5H2CN5H2C2N5H2N5H2CN5H2C2N5H2N5H2CN5H2CCu4
_chemical_formula_sum              "N40 H16 C8 Cu4"
_cell_length_a       8.7631
_cell_length_b       12.08
_cell_length_c       8.607
_cell_angle_alpha    90
_cell_angle_beta     90
_cell_angle_gamma    90

_space_group_name_H-M_alt    "P 1"
_space_group_IT_number       1

loop_
  _space_group_symop_operation_xyz
  'x, y, z'

loop_
  _atom_site_type_symbol
  _atom_site_label
  _atom_site_symmetry_multiplicity
  _atom_site_fract_x
  _atom_site_fract_y
  _atom_site_fract_z
  _atom_site_occupancy
  N   N1        1.0  0.29720  0.71670  0.59850  1.0000
  N   N2        1.0  0.40450  0.63760  0.63080  1.0000
  N   N3        1.0  0.50760  0.63800  0.52460  1.0000
  N   N4        1.0  0.47570  0.71810  0.41760  1.0000
  N   N5        1.0  0.27010  0.84840  0.39410  1.0000
  H   H1        1.0  0.18605  0.87590  0.43462  1.0000
  H   H2        1.0  0.30663  0.87586  0.30699  1.0000
  C   C1        1.0  0.34300  0.76440  0.46560  1.0000
  N   N6        1.0  0.20280  0.28330  0.59850  1.0000
  N   N7        1.0  0.09550  0.36240  0.63080  1.0000
  N   N8        1.0  0.99240  0.36200  0.52460  1.0000
  N   N9        1.0  0.02430  0.28190  0.41760  1.0000
  N   N10       1.0  0.22990  0.15160  0.39410  1.0000
  H   H3        1.0  0.31395  0.12410  0.43462  1.0000
  H   H4        1.0  0.19337  0.12414  0.30699  1.0000
  C   C2        1.0  0.15700  0.23560  0.46560  1.0000
  C   C3        1.0  0.15700  0.26440  0.03440  1.0000
  N   N11       1.0  0.20280  0.21670  0.90150  1.0000
  N   N12       1.0  0.09550  0.13760  0.86920  1.0000
  N   N13       1.0  0.99240  0.13800  0.97540  1.0000
  N   N14       1.0  0.02430  0.21810  0.08240  1.0000
  N   N15       1.0  0.22990  0.34840  0.10590  1.0000
  H   H5        1.0  0.31395  0.37590  0.06538  1.0000
  H   H6        1.0  0.19337  0.37586  0.19301  1.0000
  N   N16       1.0  0.29720  0.78330  0.90150  1.0000
  N   N17       1.0  0.40450  0.86240  0.86920  1.0000
  N   N18       1.0  0.50760  0.86200  0.97540  1.0000
  N   N19       1.0  0.47570  0.78190  0.08240  1.0000
  N   N20       1.0  0.27010  0.65160  0.10590  1.0000
  H   H7        1.0  0.18605  0.62410  0.06538  1.0000
  H   H8        1.0  0.30663  0.62414  0.19301  1.0000
  C   C4        1.0  0.34300  0.73560  0.03440  1.0000
  N   N21       1.0  0.70280  0.28330  0.40150  1.0000
  N   N22       1.0  0.59550  0.36240  0.36920  1.0000
  N   N23       1.0  0.49240  0.36200  0.47540  1.0000
  N   N24       1.0  0.52430  0.28190  0.58240  1.0000
  N   N25       1.0  0.72990  0.15160  0.60590  1.0000
  H   H9        1.0  0.81395  0.12410  0.56538  1.0000
  H   H10       1.0  0.69337  0.12414  0.69301  1.0000
  C   C5        1.0  0.65700  0.23560  0.53440  1.0000
  C   C6        1.0  0.84300  0.76440  0.53440  1.0000
  N   N26       1.0  0.79720  0.71670  0.40150  1.0000
  N   N27       1.0  0.90450  0.63760  0.36920  1.0000
  N   N28       1.0  0.00760  0.63800  0.47540  1.0000
  N   N29       1.0  0.97570  0.71810  0.58240  1.0000
  N   N30       1.0  0.77010  0.84840  0.60590  1.0000
  H   H11       1.0  0.68605  0.87590  0.56538  1.0000
  H   H12       1.0  0.80663  0.87586  0.69301  1.0000
  N   N31       1.0  0.79720  0.78330  0.09850  1.0000
  N   N32       1.0  0.90450  0.86240  0.13080  1.0000
  N   N33       1.0  0.00760  0.86200  0.02460  1.0000
  N   N34       1.0  0.97570  0.78190  0.91760  1.0000
  N   N35       1.0  0.77010  0.65160  0.89410  1.0000
  H   H13       1.0  0.68605  0.62410  0.93462  1.0000
  H   H14       1.0  0.80663  0.62414  0.80699  1.0000
  C   C7        1.0  0.84300  0.73560  0.96560  1.0000
  N   N36       1.0  0.70280  0.21670  0.09850  1.0000
  N   N37       1.0  0.59550  0.13760  0.13080  1.0000
  N   N38       1.0  0.49240  0.13800  0.02460  1.0000
  N   N39       1.0  0.52430  0.21810  0.91760  1.0000
  N   N40       1.0  0.72990  0.34840  0.89410  1.0000
  H   H15       1.0  0.81395  0.37590  0.93462  1.0000
  H   H16       1.0  0.69337  0.37586  0.80699  1.0000
  C   C8        1.0  0.65700  0.26440  0.96560  1.0000
  Cu  Cu1       1.0  0.12974  0.75000  0.75000  1.0000
  Cu  Cu2       1.0  0.37026  0.25000  0.75000  1.0000
  Cu  Cu3       1.0  0.87026  0.25000  0.25000  1.0000
  Cu  Cu4       1.0  0.62974  0.75000  0.25000  1.0000
