data_image0
_chemical_formula_structural       CO2C3O2C2O2CO2CO2CO2C2O2CO2ZnRbO2ZnRbCO2C3O2C2O2CO2CO2CO2C2O2CO2ZnRbO2ZnRb
_chemical_formula_sum              "C24 O36 Zn4 Rb4"
_cell_length_a       15.9656
_cell_length_b       9.2716
_cell_length_c       9.3359
_cell_angle_alpha    62.05
_cell_angle_beta     83.042
_cell_angle_gamma    73.281

_space_group_name_H-M_alt    "P 1"
_space_group_IT_number       1

loop_
  _space_group_symop_operation_xyz
  'x, y, z'

loop_
  _atom_site_type_symbol
  _atom_site_label
  _atom_site_symmetry_multiplicity
  _atom_site_fract_x
  _atom_site_fract_y
  _atom_site_fract_z
  _atom_site_occupancy
  C   C1        1.0  0.19590  0.85440  0.41450  1.0000
  O   O1        1.0  0.30405  0.29160  0.53890  1.0000
  O   O2        1.0  0.23240  0.09040  0.64020  1.0000
  C   C2        1.0  0.46130  0.07190  0.50040  1.0000
  C   C3        1.0  0.38350  0.00660  0.59050  1.0000
  C   C4        1.0  0.30410  0.14560  0.58550  1.0000
  O   O3        1.0  0.19595  0.70840  0.46110  1.0000
  O   O4        1.0  0.26760  0.90960  0.35980  1.0000
  C   C5        1.0  0.03870  0.92810  0.49960  1.0000
  C   C6        1.0  0.11650  0.99340  0.40950  1.0000
  O   O5        1.0  0.42420  0.53090  0.64130  1.0000
  O   O6        1.0  0.41935  0.67410  0.37080  1.0000
  C   C7        1.0  0.45455  0.55870  0.50460  1.0000
  O   O7        1.0  0.07580  0.46910  0.35870  1.0000
  O   O8        1.0  0.08065  0.32590  0.62920  1.0000
  C   C8        1.0  0.04545  0.44130  0.49540  1.0000
  O   O9        1.0  0.07645  0.46810  0.86000  1.0000
  O   O10       1.0  0.06915  0.61870  0.99310  1.0000
  C   C9        1.0  0.04230  0.52490  0.95730  1.0000
  O   O11       1.0  0.42355  0.53190  0.14000  1.0000
  O   O12       1.0  0.43085  0.38130  0.00690  1.0000
  C   C10       1.0  0.45770  0.47510  0.04270  1.0000
  C   C11       1.0  0.45455  0.02340  0.96050  1.0000
  O   O13       1.0  0.08230  0.09360  0.99200  1.0000
  O   O14       1.0  0.07405  0.82740  0.14420  1.0000
  C   C12       1.0  0.04545  0.97660  0.03950  1.0000
  O   O15       1.0  0.41770  0.90640  0.00800  1.0000
  O   O16       1.0  0.42595  0.17260  0.85580  1.0000
  Zn  Zn1       1.0  0.00671  0.32640  0.82982  1.0000
  Rb  Rb1       1.0  0.25987  0.43912  0.77149  1.0000
  O   O17       1.0  0.22015  0.72490  0.84360  1.0000
  O   O18       1.0  0.27985  0.27510  0.15640  1.0000
  Zn  Zn2       1.0  0.49328  0.67360  0.17018  1.0000
  Rb  Rb2       1.0  0.24013  0.56088  0.22851  1.0000
  C   C13       1.0  0.69590  0.85440  0.41450  1.0000
  O   O19       1.0  0.80405  0.29160  0.53890  1.0000
  O   O20       1.0  0.73240  0.09040  0.64020  1.0000
  C   C14       1.0  0.96130  0.07190  0.50040  1.0000
  C   C15       1.0  0.88350  0.00660  0.59050  1.0000
  C   C16       1.0  0.80410  0.14560  0.58550  1.0000
  O   O21       1.0  0.69595  0.70840  0.46110  1.0000
  O   O22       1.0  0.76760  0.90960  0.35980  1.0000
  C   C17       1.0  0.53870  0.92810  0.49960  1.0000
  C   C18       1.0  0.61650  0.99340  0.40950  1.0000
  O   O23       1.0  0.92420  0.53090  0.64130  1.0000
  O   O24       1.0  0.91935  0.67410  0.37080  1.0000
  C   C19       1.0  0.95455  0.55870  0.50460  1.0000
  O   O25       1.0  0.57580  0.46910  0.35870  1.0000
  O   O26       1.0  0.58065  0.32590  0.62920  1.0000
  C   C20       1.0  0.54545  0.44130  0.49540  1.0000
  O   O27       1.0  0.57645  0.46810  0.86000  1.0000
  O   O28       1.0  0.56915  0.61870  0.99310  1.0000
  C   C21       1.0  0.54230  0.52490  0.95730  1.0000
  O   O29       1.0  0.92355  0.53190  0.14000  1.0000
  O   O30       1.0  0.93085  0.38130  0.00690  1.0000
  C   C22       1.0  0.95770  0.47510  0.04270  1.0000
  C   C23       1.0  0.95455  0.02340  0.96050  1.0000
  O   O31       1.0  0.58230  0.09360  0.99200  1.0000
  O   O32       1.0  0.57405  0.82740  0.14420  1.0000
  C   C24       1.0  0.54545  0.97660  0.03950  1.0000
  O   O33       1.0  0.91770  0.90640  0.00800  1.0000
  O   O34       1.0  0.92595  0.17260  0.85580  1.0000
  Zn  Zn3       1.0  0.50672  0.32640  0.82982  1.0000
  Rb  Rb3       1.0  0.75987  0.43912  0.77149  1.0000
  O   O35       1.0  0.72015  0.72490  0.84360  1.0000
  O   O36       1.0  0.77985  0.27510  0.15640  1.0000
  Zn  Zn4       1.0  0.99328  0.67360  0.17018  1.0000
  Rb  Rb4       1.0  0.74013  0.56088  0.22851  1.0000
