data_image0
_chemical_formula_structural       CNCNCNO2CHCHOCOCHCHCHC2HC2HCHCHC2H3CHCHCHC2HCHCHCHC2HCHC3HCH3CHC3HCHCHC2HOCOCH3CNCNCNO2CHCHOCOCHCHCHC2HC2HCHCHC2H3CHCHCHC2HCHCHCHC2HCHC3HCH3CHC3HCHCHC2HOCOCH3CNCNCNO2CHCHOCOCHCHCHC2HC2HCHCHC2H3CHCHCHC2HCHCHCHC2HCHC3HCH3CHC3HCHCHC2HOCOCH3CNCNCNO2CHCHOCOCHCHCHC2HC2HCHCHC2H3CHCHCHC2HCHCHCHC2HCHC3HCH3CHC3HCHCHC2HOCOCH3CNCNCNO2CHCHOCOCHCHCHC2HC2HCHCHC2H3CHCHCHC2HCHCHCHC2HCHC3HCH3CHC3HCHCHC2HOCOCH3CNCNCNO2CHCHOCOCHCHCHC2HC2HCHCHC2H3CHCHCHC2HCHCHCHC2HCHC3HCH3CHC3HCHCHC2HOCOCH3CHCHOCOCHCHCHC2HC2HCHCHC2H3CHCHCHC2HCHCHCHC2HCHC3HCH3CHC3HCHCHC2HOCOCH3CNCNCNO2CNCNCNO2CHCHOCOCHCHCHC2HC2HCHCHC2H3CHCHCHC2HCHCHCHC2HCHC3HCH3CHC3HCHCHC2HOCOCH3
_chemical_formula_sum              "C336 N24 O48 H264"
_cell_length_a       26.787
_cell_length_b       15.382
_cell_length_c       20.723
_cell_angle_alpha    90
_cell_angle_beta     118.439
_cell_angle_gamma    90

_space_group_name_H-M_alt    "P 1"
_space_group_IT_number       1

loop_
  _space_group_symop_operation_xyz
  'x, y, z'

loop_
  _atom_site_type_symbol
  _atom_site_label
  _atom_site_symmetry_multiplicity
  _atom_site_fract_x
  _atom_site_fract_y
  _atom_site_fract_z
  _atom_site_occupancy
  C   C1        1.0  0.76627  0.76326  0.41133  1.0000
  N   N1        1.0  0.72835  0.82498  0.41126  1.0000
  C   C2        1.0  0.67875  0.79868  0.41139  1.0000
  N   N2        1.0  0.66708  0.71066  0.41158  1.0000
  C   C3        1.0  0.70500  0.64894  0.41165  1.0000
  N   N3        1.0  0.75460  0.67524  0.41152  1.0000
  O   O1        1.0  0.98121  0.20580  0.32739  1.0000
  O   O2        1.0  0.31018  0.92010  0.33260  1.0000
  C   C4        1.0  0.54980  0.89260  0.40170  1.0000
  H   H1        1.0  0.51720  0.87460  0.40320  1.0000
  C   C5        1.0  0.37650  0.94600  0.28680  1.0000
  H   H2        1.0  0.35270  0.92050  0.24180  1.0000
  O   O3        1.0  0.64348  0.30130  0.38720  1.0000
  C   C6        1.0  0.46350  0.01510  0.36870  1.0000
  O   O4        1.0  0.51913  0.04440  0.38410  1.0000
  C   C7        1.0  0.44580  0.02990  0.41790  1.0000
  H   H3        1.0  0.46830  0.06030  0.46090  1.0000
  C   C8        1.0  0.42960  0.97790  0.30110  1.0000
  H   H4        1.0  0.44170  0.97420  0.26590  1.0000
  C   C9        1.0  0.60740  0.00970  0.39490  1.0000
  H   H5        1.0  0.61330  0.06860  0.39100  1.0000
  C   C10       1.0  0.55800  0.98130  0.39260  1.0000
  C   C11       1.0  0.39250  0.99850  0.40330  1.0000
  H   H6        1.0  0.37900  0.00820  0.43660  1.0000
  C   C12       1.0  0.69231  0.56150  0.40940  1.0000
  C   C13       1.0  0.58982  0.83330  0.40840  1.0000
  H   H7        1.0  0.58410  0.77460  0.41320  1.0000
  C   C14       1.0  0.70909  0.18130  0.42260  1.0000
  H   H8        1.0  0.71280  0.18270  0.46950  1.0000
  C   C15       1.0  0.66490  0.23580  0.29940  1.0000
  H   H9        1.0  0.63880  0.27250  0.26360  1.0000
  C   C16       1.0  0.63899  0.86040  0.40800  1.0000
  C   C17       1.0  0.94110  0.24370  0.26120  1.0000
  H   H10       1.0  0.94140  0.21380  0.22070  1.0000
  H   H11       1.0  0.95050  0.30380  0.26030  1.0000
  H   H12       1.0  0.90400  0.23960  0.25740  1.0000
  C   C18       1.0  0.71305  0.41070  0.39650  1.0000
  H   H13       1.0  0.73660  0.36910  0.39240  1.0000
  C   C19       1.0  0.62764  0.44690  0.40280  1.0000
  H   H14       1.0  0.59460  0.42950  0.40330  1.0000
  C   C20       1.0  0.73985  0.12090  0.40490  1.0000
  H   H15       1.0  0.76430  0.08210  0.44020  1.0000
  C   C21       1.0  0.66253  0.38650  0.39520  1.0000
  C   C22       1.0  0.87419  0.90450  0.40360  1.0000
  H   H16       1.0  0.88180  0.96340  0.40310  1.0000
  C   C23       1.0  0.93029  0.06810  0.28640  1.0000
  H   H17       1.0  0.90520  0.09130  0.24090  1.0000
  C   C24       1.0  0.00463  0.00020  0.42210  1.0000
  H   H18       1.0  0.02990  0.97630  0.46720  1.0000
  C   C25       1.0  0.72756  0.49790  0.40420  1.0000
  H   H19       1.0  0.76150  0.51460  0.40590  1.0000
  C   C26       1.0  0.90985  0.84330  0.39770  1.0000
  C   C27       1.0  0.90028  0.75560  0.40160  1.0000
  H   H20       1.0  0.92530  0.71490  0.39980  1.0000
  C   C28       1.0  0.01069  0.08400  0.40590  1.0000
  H   H21       1.0  0.03990  0.11790  0.44050  1.0000
  C   C29       1.0  0.96068  0.95150  0.37090  1.0000
  C   C30       1.0  0.35970  0.95250  0.33890  1.0000
  C   C31       1.0  0.82723  0.87820  0.41020  1.0000
  H   H22       1.0  0.80340  0.91950  0.41400  1.0000
  C   C32       1.0  0.27760  0.86620  0.27060  1.0000
  H   H23       1.0  0.26740  0.89840  0.22640  1.0000
  H   H24       1.0  0.24380  0.84750  0.27170  1.0000
  H   H25       1.0  0.29970  0.81630  0.27200  1.0000
  C   C33       1.0  0.85357  0.72810  0.40810  1.0000
  H   H26       1.0  0.84720  0.66900  0.41050  1.0000
  C   C34       1.0  0.67277  0.23940  0.36870  1.0000
  C   C35       1.0  0.73370  0.11940  0.33550  1.0000
  C   C36       1.0  0.69610  0.17680  0.28160  1.0000
  H   H27       1.0  0.69190  0.17560  0.23440  1.0000
  C   C37       1.0  0.64269  0.53430  0.40980  1.0000
  H   H28       1.0  0.61930  0.57540  0.41480  1.0000
  C   C38       1.0  0.92459  0.98170  0.30310  1.0000
  H   H29       1.0  0.89670  0.94600  0.26840  1.0000
  C   C39       1.0  0.97376  0.11890  0.33860  1.0000
  C   C40       1.0  0.64821  0.94920  0.40300  1.0000
  H   H30       1.0  0.68200  0.96760  0.40520  1.0000
  O   O5        1.0  0.95610  0.86460  0.38940  1.0000
  C   C41       1.0  0.81561  0.78980  0.41110  1.0000
  O   O6        1.0  0.76687  0.06190  0.32362  1.0000
  C   C42       1.0  0.77490  0.07690  0.26120  1.0000
  H   H31       1.0  0.74060  0.06350  0.21730  1.0000
  H   H32       1.0  0.80510  0.04050  0.26420  1.0000
  H   H33       1.0  0.78460  0.13680  0.26030  1.0000
  C   C43       1.0  0.26627  0.26326  0.41133  1.0000
  N   N4        1.0  0.22835  0.32498  0.41126  1.0000
  C   C44       1.0  0.17875  0.29868  0.41139  1.0000
  N   N5        1.0  0.16708  0.21066  0.41158  1.0000
  C   C45       1.0  0.20500  0.14894  0.41165  1.0000
  N   N6        1.0  0.25460  0.17524  0.41152  1.0000
  O   O7        1.0  0.48121  0.70580  0.32739  1.0000
  O   O8        1.0  0.81018  0.42010  0.33260  1.0000
  C   C46       1.0  0.04980  0.39260  0.40170  1.0000
  H   H34       1.0  0.01720  0.37460  0.40320  1.0000
  C   C47       1.0  0.87650  0.44600  0.28680  1.0000
  H   H35       1.0  0.85270  0.42050  0.24180  1.0000
  O   O9        1.0  0.14348  0.80130  0.38720  1.0000
  C   C48       1.0  0.96350  0.51510  0.36870  1.0000
  O   O10       1.0  0.01913  0.54440  0.38410  1.0000
  C   C49       1.0  0.94580  0.52990  0.41790  1.0000
  H   H36       1.0  0.96830  0.56030  0.46090  1.0000
  C   C50       1.0  0.92960  0.47790  0.30110  1.0000
  H   H37       1.0  0.94170  0.47420  0.26590  1.0000
  C   C51       1.0  0.10740  0.50970  0.39490  1.0000
  H   H38       1.0  0.11330  0.56860  0.39100  1.0000
  C   C52       1.0  0.05800  0.48130  0.39260  1.0000
  C   C53       1.0  0.89250  0.49850  0.40330  1.0000
  H   H39       1.0  0.87900  0.50820  0.43660  1.0000
  C   C54       1.0  0.19231  0.06150  0.40940  1.0000
  C   C55       1.0  0.08982  0.33330  0.40840  1.0000
  H   H40       1.0  0.08410  0.27460  0.41320  1.0000
  C   C56       1.0  0.20909  0.68130  0.42260  1.0000
  H   H41       1.0  0.21280  0.68270  0.46950  1.0000
  C   C57       1.0  0.16490  0.73580  0.29940  1.0000
  H   H42       1.0  0.13880  0.77250  0.26360  1.0000
  C   C58       1.0  0.13899  0.36040  0.40800  1.0000
  C   C59       1.0  0.44110  0.74370  0.26120  1.0000
  H   H43       1.0  0.44140  0.71380  0.22070  1.0000
  H   H44       1.0  0.45050  0.80380  0.26030  1.0000
  H   H45       1.0  0.40400  0.73960  0.25740  1.0000
  C   C60       1.0  0.21305  0.91070  0.39650  1.0000
  H   H46       1.0  0.23660  0.86910  0.39240  1.0000
  C   C61       1.0  0.12764  0.94690  0.40280  1.0000
  H   H47       1.0  0.09460  0.92950  0.40330  1.0000
  C   C62       1.0  0.23985  0.62090  0.40490  1.0000
  H   H48       1.0  0.26430  0.58210  0.44020  1.0000
  C   C63       1.0  0.16253  0.88650  0.39520  1.0000
  C   C64       1.0  0.37419  0.40450  0.40360  1.0000
  H   H49       1.0  0.38180  0.46340  0.40310  1.0000
  C   C65       1.0  0.43029  0.56810  0.28640  1.0000
  H   H50       1.0  0.40520  0.59130  0.24090  1.0000
  C   C66       1.0  0.50463  0.50020  0.42210  1.0000
  H   H51       1.0  0.52990  0.47630  0.46720  1.0000
  C   C67       1.0  0.22756  0.99790  0.40420  1.0000
  H   H52       1.0  0.26150  0.01460  0.40590  1.0000
  C   C68       1.0  0.40985  0.34330  0.39770  1.0000
  C   C69       1.0  0.40028  0.25560  0.40160  1.0000
  H   H53       1.0  0.42530  0.21490  0.39980  1.0000
  C   C70       1.0  0.51069  0.58400  0.40590  1.0000
  H   H54       1.0  0.53990  0.61790  0.44050  1.0000
  C   C71       1.0  0.46068  0.45150  0.37090  1.0000
  C   C72       1.0  0.85970  0.45250  0.33890  1.0000
  C   C73       1.0  0.32723  0.37820  0.41020  1.0000
  H   H55       1.0  0.30340  0.41950  0.41400  1.0000
  C   C74       1.0  0.77760  0.36620  0.27060  1.0000
  H   H56       1.0  0.76740  0.39840  0.22640  1.0000
  H   H57       1.0  0.74380  0.34750  0.27170  1.0000
  H   H58       1.0  0.79970  0.31630  0.27200  1.0000
  C   C75       1.0  0.35357  0.22810  0.40810  1.0000
  H   H59       1.0  0.34720  0.16900  0.41050  1.0000
  C   C76       1.0  0.17277  0.73940  0.36870  1.0000
  C   C77       1.0  0.23370  0.61940  0.33550  1.0000
  C   C78       1.0  0.19610  0.67680  0.28160  1.0000
  H   H60       1.0  0.19190  0.67560  0.23440  1.0000
  C   C79       1.0  0.14269  0.03430  0.40980  1.0000
  H   H61       1.0  0.11930  0.07540  0.41480  1.0000
  C   C80       1.0  0.42459  0.48170  0.30310  1.0000
  H   H62       1.0  0.39670  0.44600  0.26840  1.0000
  C   C81       1.0  0.47376  0.61890  0.33860  1.0000
  C   C82       1.0  0.14821  0.44920  0.40300  1.0000
  H   H63       1.0  0.18200  0.46760  0.40520  1.0000
  O   O11       1.0  0.45610  0.36460  0.38940  1.0000
  C   C83       1.0  0.31561  0.28980  0.41110  1.0000
  O   O12       1.0  0.26687  0.56190  0.32362  1.0000
  C   C84       1.0  0.27490  0.57690  0.26120  1.0000
  H   H64       1.0  0.24060  0.56350  0.21730  1.0000
  H   H65       1.0  0.30510  0.54050  0.26420  1.0000
  H   H66       1.0  0.28460  0.63680  0.26030  1.0000
  C   C85       1.0  0.23373  0.76326  0.08867  1.0000
  N   N7        1.0  0.27165  0.82498  0.08874  1.0000
  C   C86       1.0  0.32125  0.79868  0.08861  1.0000
  N   N8        1.0  0.33292  0.71066  0.08842  1.0000
  C   C87       1.0  0.29500  0.64894  0.08835  1.0000
  N   N9        1.0  0.24540  0.67524  0.08848  1.0000
  O   O13       1.0  0.01879  0.20580  0.17261  1.0000
  O   O14       1.0  0.68982  0.92010  0.16740  1.0000
  C   C88       1.0  0.45020  0.89260  0.09830  1.0000
  H   H67       1.0  0.48280  0.87460  0.09680  1.0000
  C   C89       1.0  0.62350  0.94600  0.21320  1.0000
  H   H68       1.0  0.64730  0.92050  0.25820  1.0000
  O   O15       1.0  0.35652  0.30130  0.11280  1.0000
  C   C90       1.0  0.53650  0.01510  0.13130  1.0000
  O   O16       1.0  0.48087  0.04440  0.11590  1.0000
  C   C91       1.0  0.55420  0.02990  0.08210  1.0000
  H   H69       1.0  0.53170  0.06030  0.03910  1.0000
  C   C92       1.0  0.57040  0.97790  0.19890  1.0000
  H   H70       1.0  0.55830  0.97420  0.23410  1.0000
  C   C93       1.0  0.39260  0.00970  0.10510  1.0000
  H   H71       1.0  0.38670  0.06860  0.10900  1.0000
  C   C94       1.0  0.44200  0.98130  0.10740  1.0000
  C   C95       1.0  0.60750  0.99850  0.09670  1.0000
  H   H72       1.0  0.62100  0.00820  0.06340  1.0000
  C   C96       1.0  0.30769  0.56150  0.09060  1.0000
  C   C97       1.0  0.41018  0.83330  0.09160  1.0000
  H   H73       1.0  0.41590  0.77460  0.08680  1.0000
  C   C98       1.0  0.29091  0.18130  0.07740  1.0000
  H   H74       1.0  0.28720  0.18270  0.03050  1.0000
  C   C99       1.0  0.33510  0.23580  0.20060  1.0000
  H   H75       1.0  0.36120  0.27250  0.23640  1.0000
  C   C100      1.0  0.36101  0.86040  0.09200  1.0000
  C   C101      1.0  0.05890  0.24370  0.23880  1.0000
  H   H76       1.0  0.05860  0.21380  0.27930  1.0000
  H   H77       1.0  0.04950  0.30380  0.23970  1.0000
  H   H78       1.0  0.09600  0.23960  0.24260  1.0000
  C   C102      1.0  0.28695  0.41070  0.10350  1.0000
  H   H79       1.0  0.26340  0.36910  0.10760  1.0000
  C   C103      1.0  0.37236  0.44690  0.09720  1.0000
  H   H80       1.0  0.40540  0.42950  0.09670  1.0000
  C   C104      1.0  0.26015  0.12090  0.09510  1.0000
  H   H81       1.0  0.23570  0.08210  0.05980  1.0000
  C   C105      1.0  0.33747  0.38650  0.10480  1.0000
  C   C106      1.0  0.12581  0.90450  0.09640  1.0000
  H   H82       1.0  0.11820  0.96340  0.09690  1.0000
  C   C107      1.0  0.06971  0.06810  0.21360  1.0000
  H   H83       1.0  0.09480  0.09130  0.25910  1.0000
  C   C108      1.0  0.99537  0.00020  0.07790  1.0000
  H   H84       1.0  0.97010  0.97630  0.03280  1.0000
  C   C109      1.0  0.27244  0.49790  0.09580  1.0000
  H   H85       1.0  0.23850  0.51460  0.09410  1.0000
  C   C110      1.0  0.09015  0.84330  0.10230  1.0000
  C   C111      1.0  0.09972  0.75560  0.09840  1.0000
  H   H86       1.0  0.07470  0.71490  0.10020  1.0000
  C   C112      1.0  0.98931  0.08400  0.09410  1.0000
  H   H87       1.0  0.96010  0.11790  0.05950  1.0000
  C   C113      1.0  0.03932  0.95150  0.12910  1.0000
  C   C114      1.0  0.64030  0.95250  0.16110  1.0000
  C   C115      1.0  0.17277  0.87820  0.08980  1.0000
  H   H88       1.0  0.19660  0.91950  0.08600  1.0000
  C   C116      1.0  0.72240  0.86620  0.22940  1.0000
  H   H89       1.0  0.73260  0.89840  0.27360  1.0000
  H   H90       1.0  0.75620  0.84750  0.22830  1.0000
  H   H91       1.0  0.70030  0.81630  0.22800  1.0000
  C   C117      1.0  0.14643  0.72810  0.09190  1.0000
  H   H92       1.0  0.15280  0.66900  0.08950  1.0000
  C   C118      1.0  0.32723  0.23940  0.13130  1.0000
  C   C119      1.0  0.26630  0.11940  0.16450  1.0000
  C   C120      1.0  0.30390  0.17680  0.21840  1.0000
  H   H93       1.0  0.30810  0.17560  0.26560  1.0000
  C   C121      1.0  0.35731  0.53430  0.09020  1.0000
  H   H94       1.0  0.38070  0.57540  0.08520  1.0000
  C   C122      1.0  0.07541  0.98170  0.19690  1.0000
  H   H95       1.0  0.10330  0.94600  0.23160  1.0000
  C   C123      1.0  0.02624  0.11890  0.16140  1.0000
  C   C124      1.0  0.35179  0.94920  0.09700  1.0000
  H   H96       1.0  0.31800  0.96760  0.09480  1.0000
  O   O17       1.0  0.04390  0.86460  0.11060  1.0000
  C   C125      1.0  0.18439  0.78980  0.08890  1.0000
  O   O18       1.0  0.23313  0.06190  0.17638  1.0000
  C   C126      1.0  0.22510  0.07690  0.23880  1.0000
  H   H97       1.0  0.25940  0.06350  0.28270  1.0000
  H   H98       1.0  0.19490  0.04050  0.23580  1.0000
  H   H99       1.0  0.21540  0.13680  0.23970  1.0000
  C   C127      1.0  0.73373  0.26326  0.08867  1.0000
  N   N10       1.0  0.77165  0.32498  0.08874  1.0000
  C   C128      1.0  0.82125  0.29868  0.08861  1.0000
  N   N11       1.0  0.83292  0.21066  0.08842  1.0000
  C   C129      1.0  0.79500  0.14894  0.08835  1.0000
  N   N12       1.0  0.74540  0.17524  0.08848  1.0000
  O   O19       1.0  0.51879  0.70580  0.17261  1.0000
  O   O20       1.0  0.18982  0.42010  0.16740  1.0000
  C   C130      1.0  0.95020  0.39260  0.09830  1.0000
  H   H100      1.0  0.98280  0.37460  0.09680  1.0000
  C   C131      1.0  0.12350  0.44600  0.21320  1.0000
  H   H101      1.0  0.14730  0.42050  0.25820  1.0000
  O   O21       1.0  0.85652  0.80130  0.11280  1.0000
  C   C132      1.0  0.03650  0.51510  0.13130  1.0000
  O   O22       1.0  0.98087  0.54440  0.11590  1.0000
  C   C133      1.0  0.05420  0.52990  0.08210  1.0000
  H   H102      1.0  0.03170  0.56030  0.03910  1.0000
  C   C134      1.0  0.07040  0.47790  0.19890  1.0000
  H   H103      1.0  0.05830  0.47420  0.23410  1.0000
  C   C135      1.0  0.89260  0.50970  0.10510  1.0000
  H   H104      1.0  0.88670  0.56860  0.10900  1.0000
  C   C136      1.0  0.94200  0.48130  0.10740  1.0000
  C   C137      1.0  0.10750  0.49850  0.09670  1.0000
  H   H105      1.0  0.12100  0.50820  0.06340  1.0000
  C   C138      1.0  0.80769  0.06150  0.09060  1.0000
  C   C139      1.0  0.91018  0.33330  0.09160  1.0000
  H   H106      1.0  0.91590  0.27460  0.08680  1.0000
  C   C140      1.0  0.79091  0.68130  0.07740  1.0000
  H   H107      1.0  0.78720  0.68270  0.03050  1.0000
  C   C141      1.0  0.83510  0.73580  0.20060  1.0000
  H   H108      1.0  0.86120  0.77250  0.23640  1.0000
  C   C142      1.0  0.86101  0.36040  0.09200  1.0000
  C   C143      1.0  0.55890  0.74370  0.23880  1.0000
  H   H109      1.0  0.55860  0.71380  0.27930  1.0000
  H   H110      1.0  0.54950  0.80380  0.23970  1.0000
  H   H111      1.0  0.59600  0.73960  0.24260  1.0000
  C   C144      1.0  0.78695  0.91070  0.10350  1.0000
  H   H112      1.0  0.76340  0.86910  0.10760  1.0000
  C   C145      1.0  0.87236  0.94690  0.09720  1.0000
  H   H113      1.0  0.90540  0.92950  0.09670  1.0000
  C   C146      1.0  0.76015  0.62090  0.09510  1.0000
  H   H114      1.0  0.73570  0.58210  0.05980  1.0000
  C   C147      1.0  0.83747  0.88650  0.10480  1.0000
  C   C148      1.0  0.62581  0.40450  0.09640  1.0000
  H   H115      1.0  0.61820  0.46340  0.09690  1.0000
  C   C149      1.0  0.56971  0.56810  0.21360  1.0000
  H   H116      1.0  0.59480  0.59130  0.25910  1.0000
  C   C150      1.0  0.49537  0.50020  0.07790  1.0000
  H   H117      1.0  0.47010  0.47630  0.03280  1.0000
  C   C151      1.0  0.77244  0.99790  0.09580  1.0000
  H   H118      1.0  0.73850  0.01460  0.09410  1.0000
  C   C152      1.0  0.59015  0.34330  0.10230  1.0000
  C   C153      1.0  0.59972  0.25560  0.09840  1.0000
  H   H119      1.0  0.57470  0.21490  0.10020  1.0000
  C   C154      1.0  0.48931  0.58400  0.09410  1.0000
  H   H120      1.0  0.46010  0.61790  0.05950  1.0000
  C   C155      1.0  0.53932  0.45150  0.12910  1.0000
  C   C156      1.0  0.14030  0.45250  0.16110  1.0000
  C   C157      1.0  0.67277  0.37820  0.08980  1.0000
  H   H121      1.0  0.69660  0.41950  0.08600  1.0000
  C   C158      1.0  0.22240  0.36620  0.22940  1.0000
  H   H122      1.0  0.23260  0.39840  0.27360  1.0000
  H   H123      1.0  0.25620  0.34750  0.22830  1.0000
  H   H124      1.0  0.20030  0.31630  0.22800  1.0000
  C   C159      1.0  0.64643  0.22810  0.09190  1.0000
  H   H125      1.0  0.65280  0.16900  0.08950  1.0000
  C   C160      1.0  0.82723  0.73940  0.13130  1.0000
  C   C161      1.0  0.76630  0.61940  0.16450  1.0000
  C   C162      1.0  0.80390  0.67680  0.21840  1.0000
  H   H126      1.0  0.80810  0.67560  0.26560  1.0000
  C   C163      1.0  0.85731  0.03430  0.09020  1.0000
  H   H127      1.0  0.88070  0.07540  0.08520  1.0000
  C   C164      1.0  0.57541  0.48170  0.19690  1.0000
  H   H128      1.0  0.60330  0.44600  0.23160  1.0000
  C   C165      1.0  0.52624  0.61890  0.16140  1.0000
  C   C166      1.0  0.85179  0.44920  0.09700  1.0000
  H   H129      1.0  0.81800  0.46760  0.09480  1.0000
  O   O23       1.0  0.54390  0.36460  0.11060  1.0000
  C   C167      1.0  0.68439  0.28980  0.08890  1.0000
  O   O24       1.0  0.73313  0.56190  0.17638  1.0000
  C   C168      1.0  0.72510  0.57690  0.23880  1.0000
  H   H130      1.0  0.75940  0.56350  0.28270  1.0000
  H   H131      1.0  0.69490  0.54050  0.23580  1.0000
  H   H132      1.0  0.71540  0.63680  0.23970  1.0000
  C   C169      1.0  0.23373  0.23674  0.58867  1.0000
  N   N13       1.0  0.27165  0.17502  0.58874  1.0000
  C   C170      1.0  0.32125  0.20132  0.58861  1.0000
  N   N14       1.0  0.33292  0.28934  0.58842  1.0000
  C   C171      1.0  0.29500  0.35106  0.58835  1.0000
  N   N15       1.0  0.24540  0.32476  0.58848  1.0000
  O   O25       1.0  0.01879  0.79420  0.67261  1.0000
  O   O26       1.0  0.68982  0.07990  0.66740  1.0000
  C   C172      1.0  0.45020  0.10740  0.59830  1.0000
  H   H133      1.0  0.48280  0.12540  0.59680  1.0000
  C   C173      1.0  0.62350  0.05400  0.71320  1.0000
  H   H134      1.0  0.64730  0.07950  0.75820  1.0000
  O   O27       1.0  0.35652  0.69870  0.61280  1.0000
  C   C174      1.0  0.53650  0.98490  0.63130  1.0000
  O   O28       1.0  0.48087  0.95560  0.61590  1.0000
  C   C175      1.0  0.55420  0.97010  0.58210  1.0000
  H   H135      1.0  0.53170  0.93970  0.53910  1.0000
  C   C176      1.0  0.57040  0.02210  0.69890  1.0000
  H   H136      1.0  0.55830  0.02580  0.73410  1.0000
  C   C177      1.0  0.39260  0.99030  0.60510  1.0000
  H   H137      1.0  0.38670  0.93140  0.60900  1.0000
  C   C178      1.0  0.44200  0.01870  0.60740  1.0000
  C   C179      1.0  0.60750  0.00150  0.59670  1.0000
  H   H138      1.0  0.62100  0.99180  0.56340  1.0000
  C   C180      1.0  0.30769  0.43850  0.59060  1.0000
  C   C181      1.0  0.41018  0.16670  0.59160  1.0000
  H   H139      1.0  0.41590  0.22540  0.58680  1.0000
  C   C182      1.0  0.29091  0.81870  0.57740  1.0000
  H   H140      1.0  0.28720  0.81730  0.53050  1.0000
  C   C183      1.0  0.33510  0.76420  0.70060  1.0000
  H   H141      1.0  0.36120  0.72750  0.73640  1.0000
  C   C184      1.0  0.36101  0.13960  0.59200  1.0000
  C   C185      1.0  0.05890  0.75630  0.73880  1.0000
  H   H142      1.0  0.05860  0.78620  0.77930  1.0000
  H   H143      1.0  0.04950  0.69620  0.73970  1.0000
  H   H144      1.0  0.09600  0.76040  0.74260  1.0000
  C   C186      1.0  0.28695  0.58930  0.60350  1.0000
  H   H145      1.0  0.26340  0.63090  0.60760  1.0000
  C   C187      1.0  0.37236  0.55310  0.59720  1.0000
  H   H146      1.0  0.40540  0.57050  0.59670  1.0000
  C   C188      1.0  0.26015  0.87910  0.59510  1.0000
  H   H147      1.0  0.23570  0.91790  0.55980  1.0000
  C   C189      1.0  0.33747  0.61350  0.60480  1.0000
  C   C190      1.0  0.12581  0.09550  0.59640  1.0000
  H   H148      1.0  0.11820  0.03660  0.59690  1.0000
  C   C191      1.0  0.06971  0.93190  0.71360  1.0000
  H   H149      1.0  0.09480  0.90870  0.75910  1.0000
  C   C192      1.0  0.99537  0.99980  0.57790  1.0000
  H   H150      1.0  0.97010  0.02370  0.53280  1.0000
  C   C193      1.0  0.27244  0.50210  0.59580  1.0000
  H   H151      1.0  0.23850  0.48540  0.59410  1.0000
  C   C194      1.0  0.09015  0.15670  0.60230  1.0000
  C   C195      1.0  0.09972  0.24440  0.59840  1.0000
  H   H152      1.0  0.07470  0.28510  0.60020  1.0000
  C   C196      1.0  0.98931  0.91600  0.59410  1.0000
  H   H153      1.0  0.96010  0.88210  0.55950  1.0000
  C   C197      1.0  0.03932  0.04850  0.62910  1.0000
  C   C198      1.0  0.64030  0.04750  0.66110  1.0000
  C   C199      1.0  0.17277  0.12180  0.58980  1.0000
  H   H154      1.0  0.19660  0.08050  0.58600  1.0000
  C   C200      1.0  0.72240  0.13380  0.72940  1.0000
  H   H155      1.0  0.73260  0.10160  0.77360  1.0000
  H   H156      1.0  0.75620  0.15250  0.72830  1.0000
  H   H157      1.0  0.70030  0.18370  0.72800  1.0000
  C   C201      1.0  0.14643  0.27190  0.59190  1.0000
  H   H158      1.0  0.15280  0.33100  0.58950  1.0000
  C   C202      1.0  0.32723  0.76060  0.63130  1.0000
  C   C203      1.0  0.26630  0.88060  0.66450  1.0000
  C   C204      1.0  0.30390  0.82320  0.71840  1.0000
  H   H159      1.0  0.30810  0.82440  0.76560  1.0000
  C   C205      1.0  0.35731  0.46570  0.59020  1.0000
  H   H160      1.0  0.38070  0.42460  0.58520  1.0000
  C   C206      1.0  0.07541  0.01830  0.69690  1.0000
  H   H161      1.0  0.10330  0.05400  0.73160  1.0000
  C   C207      1.0  0.02624  0.88110  0.66140  1.0000
  C   C208      1.0  0.35179  0.05080  0.59700  1.0000
  H   H162      1.0  0.31800  0.03240  0.59480  1.0000
  O   O29       1.0  0.04390  0.13540  0.61060  1.0000
  C   C209      1.0  0.18439  0.21020  0.58890  1.0000
  O   O30       1.0  0.23313  0.93810  0.67638  1.0000
  C   C210      1.0  0.22510  0.92310  0.73880  1.0000
  H   H163      1.0  0.25940  0.93650  0.78270  1.0000
  H   H164      1.0  0.19490  0.95950  0.73580  1.0000
  H   H165      1.0  0.21540  0.86320  0.73970  1.0000
  C   C211      1.0  0.73373  0.73674  0.58867  1.0000
  N   N16       1.0  0.77165  0.67502  0.58874  1.0000
  C   C212      1.0  0.82125  0.70132  0.58861  1.0000
  N   N17       1.0  0.83292  0.78934  0.58842  1.0000
  C   C213      1.0  0.79500  0.85106  0.58835  1.0000
  N   N18       1.0  0.74540  0.82476  0.58848  1.0000
  O   O31       1.0  0.51879  0.29420  0.67261  1.0000
  O   O32       1.0  0.18982  0.57990  0.66740  1.0000
  C   C214      1.0  0.95020  0.60740  0.59830  1.0000
  H   H166      1.0  0.98280  0.62540  0.59680  1.0000
  C   C215      1.0  0.12350  0.55400  0.71320  1.0000
  H   H167      1.0  0.14730  0.57950  0.75820  1.0000
  O   O33       1.0  0.85652  0.19870  0.61280  1.0000
  C   C216      1.0  0.03650  0.48490  0.63130  1.0000
  O   O34       1.0  0.98087  0.45560  0.61590  1.0000
  C   C217      1.0  0.05420  0.47010  0.58210  1.0000
  H   H168      1.0  0.03170  0.43970  0.53910  1.0000
  C   C218      1.0  0.07040  0.52210  0.69890  1.0000
  H   H169      1.0  0.05830  0.52580  0.73410  1.0000
  C   C219      1.0  0.89260  0.49030  0.60510  1.0000
  H   H170      1.0  0.88670  0.43140  0.60900  1.0000
  C   C220      1.0  0.94200  0.51870  0.60740  1.0000
  C   C221      1.0  0.10750  0.50150  0.59670  1.0000
  H   H171      1.0  0.12100  0.49180  0.56340  1.0000
  C   C222      1.0  0.80769  0.93850  0.59060  1.0000
  C   C223      1.0  0.91018  0.66670  0.59160  1.0000
  H   H172      1.0  0.91590  0.72540  0.58680  1.0000
  C   C224      1.0  0.79091  0.31870  0.57740  1.0000
  H   H173      1.0  0.78720  0.31730  0.53050  1.0000
  C   C225      1.0  0.83510  0.26420  0.70060  1.0000
  H   H174      1.0  0.86120  0.22750  0.73640  1.0000
  C   C226      1.0  0.86101  0.63960  0.59200  1.0000
  C   C227      1.0  0.55890  0.25630  0.73880  1.0000
  H   H175      1.0  0.55860  0.28620  0.77930  1.0000
  H   H176      1.0  0.54950  0.19620  0.73970  1.0000
  H   H177      1.0  0.59600  0.26040  0.74260  1.0000
  C   C228      1.0  0.78695  0.08930  0.60350  1.0000
  H   H178      1.0  0.76340  0.13090  0.60760  1.0000
  C   C229      1.0  0.87236  0.05310  0.59720  1.0000
  H   H179      1.0  0.90540  0.07050  0.59670  1.0000
  C   C230      1.0  0.76015  0.37910  0.59510  1.0000
  H   H180      1.0  0.73570  0.41790  0.55980  1.0000
  C   C231      1.0  0.83747  0.11350  0.60480  1.0000
  C   C232      1.0  0.62581  0.59550  0.59640  1.0000
  H   H181      1.0  0.61820  0.53660  0.59690  1.0000
  C   C233      1.0  0.56971  0.43190  0.71360  1.0000
  H   H182      1.0  0.59480  0.40870  0.75910  1.0000
  C   C234      1.0  0.49537  0.49980  0.57790  1.0000
  H   H183      1.0  0.47010  0.52370  0.53280  1.0000
  C   C235      1.0  0.77244  0.00210  0.59580  1.0000
  H   H184      1.0  0.73850  0.98540  0.59410  1.0000
  C   C236      1.0  0.59015  0.65670  0.60230  1.0000
  C   C237      1.0  0.59972  0.74440  0.59840  1.0000
  H   H185      1.0  0.57470  0.78510  0.60020  1.0000
  C   C238      1.0  0.48931  0.41600  0.59410  1.0000
  H   H186      1.0  0.46010  0.38210  0.55950  1.0000
  C   C239      1.0  0.53932  0.54850  0.62910  1.0000
  C   C240      1.0  0.14030  0.54750  0.66110  1.0000
  C   C241      1.0  0.67277  0.62180  0.58980  1.0000
  H   H187      1.0  0.69660  0.58050  0.58600  1.0000
  C   C242      1.0  0.22240  0.63380  0.72940  1.0000
  H   H188      1.0  0.23260  0.60160  0.77360  1.0000
  H   H189      1.0  0.25620  0.65250  0.72830  1.0000
  H   H190      1.0  0.20030  0.68370  0.72800  1.0000
  C   C243      1.0  0.64643  0.77190  0.59190  1.0000
  H   H191      1.0  0.65280  0.83100  0.58950  1.0000
  C   C244      1.0  0.82723  0.26060  0.63130  1.0000
  C   C245      1.0  0.76630  0.38060  0.66450  1.0000
  C   C246      1.0  0.80390  0.32320  0.71840  1.0000
  H   H192      1.0  0.80810  0.32440  0.76560  1.0000
  C   C247      1.0  0.85731  0.96570  0.59020  1.0000
  H   H193      1.0  0.88070  0.92460  0.58520  1.0000
  C   C248      1.0  0.57541  0.51830  0.69690  1.0000
  H   H194      1.0  0.60330  0.55400  0.73160  1.0000
  C   C249      1.0  0.52624  0.38110  0.66140  1.0000
  C   C250      1.0  0.85179  0.55080  0.59700  1.0000
  H   H195      1.0  0.81800  0.53240  0.59480  1.0000
  O   O35       1.0  0.54390  0.63540  0.61060  1.0000
  C   C251      1.0  0.68439  0.71020  0.58890  1.0000
  O   O36       1.0  0.73313  0.43810  0.67638  1.0000
  C   C252      1.0  0.72510  0.42310  0.73880  1.0000
  H   H196      1.0  0.75940  0.43650  0.78270  1.0000
  H   H197      1.0  0.69490  0.45950  0.73580  1.0000
  H   H198      1.0  0.71540  0.36320  0.73970  1.0000
  C   C253      1.0  0.54980  0.10740  0.90170  1.0000
  H   H199      1.0  0.51720  0.12540  0.90320  1.0000
  C   C254      1.0  0.37650  0.05400  0.78680  1.0000
  H   H200      1.0  0.35270  0.07950  0.74180  1.0000
  O   O37       1.0  0.64348  0.69870  0.88720  1.0000
  C   C255      1.0  0.46350  0.98490  0.86870  1.0000
  O   O38       1.0  0.51913  0.95560  0.88410  1.0000
  C   C256      1.0  0.44580  0.97010  0.91790  1.0000
  H   H201      1.0  0.46830  0.93970  0.96090  1.0000
  C   C257      1.0  0.42960  0.02210  0.80110  1.0000
  H   H202      1.0  0.44170  0.02580  0.76590  1.0000
  C   C258      1.0  0.60740  0.99030  0.89490  1.0000
  H   H203      1.0  0.61330  0.93140  0.89100  1.0000
  C   C259      1.0  0.55800  0.01870  0.89260  1.0000
  C   C260      1.0  0.39250  0.00150  0.90330  1.0000
  H   H204      1.0  0.37900  0.99180  0.93660  1.0000
  C   C261      1.0  0.69231  0.43850  0.90940  1.0000
  C   C262      1.0  0.58982  0.16670  0.90840  1.0000
  H   H205      1.0  0.58410  0.22540  0.91320  1.0000
  C   C263      1.0  0.70909  0.81870  0.92260  1.0000
  H   H206      1.0  0.71280  0.81730  0.96950  1.0000
  C   C264      1.0  0.66490  0.76420  0.79940  1.0000
  H   H207      1.0  0.63880  0.72750  0.76360  1.0000
  C   C265      1.0  0.63899  0.13960  0.90800  1.0000
  C   C266      1.0  0.94110  0.75630  0.76120  1.0000
  H   H208      1.0  0.94140  0.78620  0.72070  1.0000
  H   H209      1.0  0.95050  0.69620  0.76030  1.0000
  H   H210      1.0  0.90400  0.76040  0.75740  1.0000
  C   C267      1.0  0.71305  0.58930  0.89650  1.0000
  H   H211      1.0  0.73660  0.63090  0.89240  1.0000
  C   C268      1.0  0.62764  0.55310  0.90280  1.0000
  H   H212      1.0  0.59460  0.57050  0.90330  1.0000
  C   C269      1.0  0.73985  0.87910  0.90490  1.0000
  H   H213      1.0  0.76430  0.91790  0.94020  1.0000
  C   C270      1.0  0.66253  0.61350  0.89520  1.0000
  C   C271      1.0  0.87419  0.09550  0.90360  1.0000
  H   H214      1.0  0.88180  0.03660  0.90310  1.0000
  C   C272      1.0  0.93029  0.93190  0.78640  1.0000
  H   H215      1.0  0.90520  0.90870  0.74090  1.0000
  C   C273      1.0  0.00463  0.99980  0.92210  1.0000
  H   H216      1.0  0.02990  0.02370  0.96720  1.0000
  C   C274      1.0  0.72756  0.50210  0.90420  1.0000
  H   H217      1.0  0.76150  0.48540  0.90590  1.0000
  C   C275      1.0  0.90985  0.15670  0.89770  1.0000
  C   C276      1.0  0.90028  0.24440  0.90160  1.0000
  H   H218      1.0  0.92530  0.28510  0.89980  1.0000
  C   C277      1.0  0.01069  0.91600  0.90590  1.0000
  H   H219      1.0  0.03990  0.88210  0.94050  1.0000
  C   C278      1.0  0.96068  0.04850  0.87090  1.0000
  C   C279      1.0  0.35970  0.04750  0.83890  1.0000
  C   C280      1.0  0.82723  0.12180  0.91020  1.0000
  H   H220      1.0  0.80340  0.08050  0.91400  1.0000
  C   C281      1.0  0.27760  0.13380  0.77060  1.0000
  H   H221      1.0  0.26740  0.10160  0.72640  1.0000
  H   H222      1.0  0.24380  0.15250  0.77170  1.0000
  H   H223      1.0  0.29970  0.18370  0.77200  1.0000
  C   C282      1.0  0.85357  0.27190  0.90810  1.0000
  H   H224      1.0  0.84720  0.33100  0.91050  1.0000
  C   C283      1.0  0.67277  0.76060  0.86870  1.0000
  C   C284      1.0  0.73370  0.88060  0.83550  1.0000
  C   C285      1.0  0.69610  0.82320  0.78160  1.0000
  H   H225      1.0  0.69190  0.82440  0.73440  1.0000
  C   C286      1.0  0.64269  0.46570  0.90980  1.0000
  H   H226      1.0  0.61930  0.42460  0.91480  1.0000
  C   C287      1.0  0.92459  0.01830  0.80310  1.0000
  H   H227      1.0  0.89670  0.05400  0.76840  1.0000
  C   C288      1.0  0.97376  0.88110  0.83860  1.0000
  C   C289      1.0  0.64821  0.05080  0.90300  1.0000
  H   H228      1.0  0.68200  0.03240  0.90520  1.0000
  O   O39       1.0  0.95610  0.13540  0.88940  1.0000
  C   C290      1.0  0.81561  0.21020  0.91110  1.0000
  O   O40       1.0  0.76687  0.93810  0.82362  1.0000
  C   C291      1.0  0.77490  0.92310  0.76120  1.0000
  H   H229      1.0  0.74060  0.93650  0.71730  1.0000
  H   H230      1.0  0.80510  0.95950  0.76420  1.0000
  H   H231      1.0  0.78460  0.86320  0.76030  1.0000
  C   C292      1.0  0.76627  0.23674  0.91133  1.0000
  N   N19       1.0  0.72835  0.17502  0.91126  1.0000
  C   C293      1.0  0.67875  0.20132  0.91139  1.0000
  N   N20       1.0  0.66708  0.28934  0.91158  1.0000
  C   C294      1.0  0.70500  0.35106  0.91165  1.0000
  N   N21       1.0  0.75460  0.32476  0.91152  1.0000
  O   O41       1.0  0.98121  0.79420  0.82739  1.0000
  O   O42       1.0  0.31018  0.07990  0.83260  1.0000
  C   C295      1.0  0.26627  0.73674  0.91133  1.0000
  N   N22       1.0  0.22835  0.67502  0.91126  1.0000
  C   C296      1.0  0.17875  0.70132  0.91139  1.0000
  N   N23       1.0  0.16708  0.78934  0.91158  1.0000
  C   C297      1.0  0.20500  0.85106  0.91165  1.0000
  N   N24       1.0  0.25460  0.82476  0.91152  1.0000
  O   O43       1.0  0.48121  0.29420  0.82739  1.0000
  O   O44       1.0  0.81018  0.57990  0.83260  1.0000
  C   C298      1.0  0.04980  0.60740  0.90170  1.0000
  H   H232      1.0  0.01720  0.62540  0.90320  1.0000
  C   C299      1.0  0.87650  0.55400  0.78680  1.0000
  H   H233      1.0  0.85270  0.57950  0.74180  1.0000
  O   O45       1.0  0.14348  0.19870  0.88720  1.0000
  C   C300      1.0  0.96350  0.48490  0.86870  1.0000
  O   O46       1.0  0.01913  0.45560  0.88410  1.0000
  C   C301      1.0  0.94580  0.47010  0.91790  1.0000
  H   H234      1.0  0.96830  0.43970  0.96090  1.0000
  C   C302      1.0  0.92960  0.52210  0.80110  1.0000
  H   H235      1.0  0.94170  0.52580  0.76590  1.0000
  C   C303      1.0  0.10740  0.49030  0.89490  1.0000
  H   H236      1.0  0.11330  0.43140  0.89100  1.0000
  C   C304      1.0  0.05800  0.51870  0.89260  1.0000
  C   C305      1.0  0.89250  0.50150  0.90330  1.0000
  H   H237      1.0  0.87900  0.49180  0.93660  1.0000
  C   C306      1.0  0.19231  0.93850  0.90940  1.0000
  C   C307      1.0  0.08982  0.66670  0.90840  1.0000
  H   H238      1.0  0.08410  0.72540  0.91320  1.0000
  C   C308      1.0  0.20909  0.31870  0.92260  1.0000
  H   H239      1.0  0.21280  0.31730  0.96950  1.0000
  C   C309      1.0  0.16490  0.26420  0.79940  1.0000
  H   H240      1.0  0.13880  0.22750  0.76360  1.0000
  C   C310      1.0  0.13899  0.63960  0.90800  1.0000
  C   C311      1.0  0.44110  0.25630  0.76120  1.0000
  H   H241      1.0  0.44140  0.28620  0.72070  1.0000
  H   H242      1.0  0.45050  0.19620  0.76030  1.0000
  H   H243      1.0  0.40400  0.26040  0.75740  1.0000
  C   C312      1.0  0.21305  0.08930  0.89650  1.0000
  H   H244      1.0  0.23660  0.13090  0.89240  1.0000
  C   C313      1.0  0.12764  0.05310  0.90280  1.0000
  H   H245      1.0  0.09460  0.07050  0.90330  1.0000
  C   C314      1.0  0.23985  0.37910  0.90490  1.0000
  H   H246      1.0  0.26430  0.41790  0.94020  1.0000
  C   C315      1.0  0.16253  0.11350  0.89520  1.0000
  C   C316      1.0  0.37419  0.59550  0.90360  1.0000
  H   H247      1.0  0.38180  0.53660  0.90310  1.0000
  C   C317      1.0  0.43029  0.43190  0.78640  1.0000
  H   H248      1.0  0.40520  0.40870  0.74090  1.0000
  C   C318      1.0  0.50463  0.49980  0.92210  1.0000
  H   H249      1.0  0.52990  0.52370  0.96720  1.0000
  C   C319      1.0  0.22756  0.00210  0.90420  1.0000
  H   H250      1.0  0.26150  0.98540  0.90590  1.0000
  C   C320      1.0  0.40985  0.65670  0.89770  1.0000
  C   C321      1.0  0.40028  0.74440  0.90160  1.0000
  H   H251      1.0  0.42530  0.78510  0.89980  1.0000
  C   C322      1.0  0.51069  0.41600  0.90590  1.0000
  H   H252      1.0  0.53990  0.38210  0.94050  1.0000
  C   C323      1.0  0.46068  0.54850  0.87090  1.0000
  C   C324      1.0  0.85970  0.54750  0.83890  1.0000
  C   C325      1.0  0.32723  0.62180  0.91020  1.0000
  H   H253      1.0  0.30340  0.58050  0.91400  1.0000
  C   C326      1.0  0.77760  0.63380  0.77060  1.0000
  H   H254      1.0  0.76740  0.60160  0.72640  1.0000
  H   H255      1.0  0.74380  0.65250  0.77170  1.0000
  H   H256      1.0  0.79970  0.68370  0.77200  1.0000
  C   C327      1.0  0.35357  0.77190  0.90810  1.0000
  H   H257      1.0  0.34720  0.83100  0.91050  1.0000
  C   C328      1.0  0.17277  0.26060  0.86870  1.0000
  C   C329      1.0  0.23370  0.38060  0.83550  1.0000
  C   C330      1.0  0.19610  0.32320  0.78160  1.0000
  H   H258      1.0  0.19190  0.32440  0.73440  1.0000
  C   C331      1.0  0.14269  0.96570  0.90980  1.0000
  H   H259      1.0  0.11930  0.92460  0.91480  1.0000
  C   C332      1.0  0.42459  0.51830  0.80310  1.0000
  H   H260      1.0  0.39670  0.55400  0.76840  1.0000
  C   C333      1.0  0.47376  0.38110  0.83860  1.0000
  C   C334      1.0  0.14821  0.55080  0.90300  1.0000
  H   H261      1.0  0.18200  0.53240  0.90520  1.0000
  O   O47       1.0  0.45610  0.63540  0.88940  1.0000
  C   C335      1.0  0.31561  0.71020  0.91110  1.0000
  O   O48       1.0  0.26687  0.43810  0.82362  1.0000
  C   C336      1.0  0.27490  0.42310  0.76120  1.0000
  H   H262      1.0  0.24060  0.43650  0.71730  1.0000
  H   H263      1.0  0.30510  0.45950  0.76420  1.0000
  H   H264      1.0  0.28460  0.36320  0.76030  1.0000
