data_image0
_chemical_formula_structural       P2O5HONCH2CH2CH2C2HCHCHNCHP2O5HONCH2CH2CH2C2HCHCHNCHN2HCHCHCN2CHCHCHCd4
_chemical_formula_sum              "P4 O12 H28 N8 C22 Cd4"
_cell_length_a       9.8444
_cell_length_b       10.0153
_cell_length_c       10.0369
_cell_angle_alpha    64.14
_cell_angle_beta     65.207
_cell_angle_gamma    66.046

_space_group_name_H-M_alt    "P 1"
_space_group_IT_number       1

loop_
  _space_group_symop_operation_xyz
  'x, y, z'

loop_
  _atom_site_type_symbol
  _atom_site_label
  _atom_site_symmetry_multiplicity
  _atom_site_fract_x
  _atom_site_fract_y
  _atom_site_fract_z
  _atom_site_occupancy
  P   P1        1.0  0.25380  0.37625  0.97301  1.0000
  P   P2        1.0  0.23018  0.93913  0.97850  1.0000
  O   O1        1.0  0.19630  0.54660  0.90240  1.0000
  O   O2        1.0  0.14460  0.30060  0.12220  1.0000
  O   O3        1.0  0.41350  0.33900  0.99330  1.0000
  O   O4        1.0  0.11290  0.97700  0.12050  1.0000
  O   O5        1.0  0.39640  0.91920  0.97700  1.0000
  H   H1        1.0  0.45489  0.83822  0.96097  1.0000
  O   O6        1.0  0.22710  0.80150  0.95530  1.0000
  N   N1        1.0  0.15550  0.25410  0.84060  1.0000
  C   C1        1.0  0.29550  0.27800  0.83930  1.0000
  H   H2        1.0  0.34312  0.33793  0.73524  1.0000
  H   H3        1.0  0.37019  0.17857  0.86552  1.0000
  C   C2        1.0  0.19450  0.10750  0.81290  1.0000
  H   H4        1.0  0.28637  0.10116  0.72435  1.0000
  H   H5        1.0  0.10951  0.10743  0.78785  1.0000
  C   C3        1.0  0.07410  0.38780  0.73130  1.0000
  H   H6        1.0  0.04470  0.47947  0.75871  1.0000
  H   H7        1.0  0.97929  0.36943  0.74383  1.0000
  C   C4        1.0  0.17000  0.41790  0.56290  1.0000
  C   C5        1.0  0.19210  0.32720  0.47960  1.0000
  H   H8        1.0  0.14224  0.24957  0.52539  1.0000
  C   C6        1.0  0.28710  0.35150  0.32980  1.0000
  H   H9        1.0  0.31991  0.27889  0.28068  1.0000
  C   C7        1.0  0.24460  0.53370  0.48680  1.0000
  H   H10       1.0  0.22121  0.61026  0.52798  1.0000
  N   N2        1.0  0.38780  0.43660  0.25990  1.0000
  C   C8        1.0  0.36390  0.52890  0.33590  1.0000
  H   H11       1.0  0.42682  0.59516  0.29097  1.0000
  P   P3        1.0  0.74620  0.62375  0.02699  1.0000
  P   P4        1.0  0.76982  0.06087  0.02150  1.0000
  O   O7        1.0  0.80370  0.45340  0.09760  1.0000
  O   O8        1.0  0.85540  0.69940  0.87780  1.0000
  O   O9        1.0  0.58650  0.66100  0.00670  1.0000
  O   O10       1.0  0.88710  0.02300  0.87950  1.0000
  O   O11       1.0  0.60360  0.08080  0.02300  1.0000
  H   H12       1.0  0.54511  0.16178  0.03903  1.0000
  O   O12       1.0  0.77290  0.19850  0.04470  1.0000
  N   N3        1.0  0.84450  0.74590  0.15940  1.0000
  C   C9        1.0  0.70450  0.72200  0.16070  1.0000
  H   H13       1.0  0.65688  0.66207  0.26476  1.0000
  H   H14       1.0  0.62981  0.82143  0.13448  1.0000
  C   C10       1.0  0.80550  0.89250  0.18710  1.0000
  H   H15       1.0  0.71363  0.89884  0.27565  1.0000
  H   H16       1.0  0.89049  0.89257  0.21215  1.0000
  C   C11       1.0  0.92590  0.61220  0.26870  1.0000
  H   H17       1.0  0.95530  0.52053  0.24129  1.0000
  H   H18       1.0  0.02071  0.63057  0.25617  1.0000
  C   C12       1.0  0.83000  0.58210  0.43710  1.0000
  C   C13       1.0  0.80790  0.67280  0.52040  1.0000
  H   H19       1.0  0.85776  0.75043  0.47461  1.0000
  C   C14       1.0  0.71290  0.64850  0.67020  1.0000
  H   H20       1.0  0.68009  0.72111  0.71932  1.0000
  C   C15       1.0  0.75540  0.46630  0.51320  1.0000
  H   H21       1.0  0.77879  0.38974  0.47202  1.0000
  N   N4        1.0  0.61220  0.56340  0.74010  1.0000
  C   C16       1.0  0.63610  0.47110  0.66410  1.0000
  H   H22       1.0  0.57318  0.40484  0.70903  1.0000
  N   N5        1.0  0.13470  0.88080  0.62040  1.0000
  N   N6        1.0  0.19780  0.00970  0.37270  1.0000
  H   H23       1.0  0.18869  0.07124  0.28285  1.0000
  C   C17       1.0  0.29420  0.85730  0.56270  1.0000
  H   H24       1.0  0.36385  0.79693  0.62060  1.0000
  C   C18       1.0  0.33300  0.93470  0.41050  1.0000
  H   H25       1.0  0.43280  0.93672  0.34408  1.0000
  C   C19       1.0  0.08100  0.97140  0.49930  1.0000
  N   N7        1.0  0.86530  0.11920  0.37960  1.0000
  N   N8        1.0  0.80220  0.99030  0.62730  1.0000
  C   C20       1.0  0.70580  0.14270  0.43730  1.0000
  H   H26       1.0  0.81131  0.92876  0.71715  1.0000
  C   C21       1.0  0.66700  0.06530  0.58950  1.0000
  H   H27       1.0  0.63615  0.20307  0.37940  1.0000
  C   C22       1.0  0.91900  0.02860  0.50070  1.0000
  H   H28       1.0  0.56720  0.06328  0.65592  1.0000
  Cd  Cd1       1.0  0.03598  0.77524  0.89269  1.0000
  Cd  Cd2       1.0  0.56256  0.44177  0.01436  1.0000
  Cd  Cd3       1.0  0.43744  0.55823  0.98564  1.0000
  Cd  Cd4       1.0  0.96402  0.22476  0.10731  1.0000
