data_image0
_chemical_formula_structural       CO4COCO3C3O8C3O3CO3Gd4CO4COCO3C3O8C3O3CO3Gd4
_chemical_formula_sum              "C20 O44 Gd8"
_cell_length_a       12.5828
_cell_length_b       8.6698
_cell_length_c       12.9473
_cell_angle_alpha    105.482
_cell_angle_beta     90.462
_cell_angle_gamma    105.181

_space_group_name_H-M_alt    "P 1"
_space_group_IT_number       1

loop_
  _space_group_symop_operation_xyz
  'x, y, z'

loop_
  _atom_site_type_symbol
  _atom_site_label
  _atom_site_symmetry_multiplicity
  _atom_site_fract_x
  _atom_site_fract_y
  _atom_site_fract_z
  _atom_site_occupancy
  C   C1        1.0  0.45140  0.41950  0.48000  1.0000
  O   O1        1.0  0.09245  0.64730  0.45270  1.0000
  O   O2        1.0  0.07225  0.62810  0.61950  1.0000
  O   O3        1.0  0.40755  0.35270  0.54730  1.0000
  O   O4        1.0  0.42775  0.37190  0.38050  1.0000
  C   C2        1.0  0.04860  0.58050  0.52000  1.0000
  O   O5        1.0  0.33560  0.52820  0.89770  1.0000
  C   C3        1.0  0.22165  0.54910  0.04640  1.0000
  O   O6        1.0  0.26040  0.29850  0.94480  1.0000
  O   O7        1.0  0.16440  0.47180  0.10230  1.0000
  O   O8        1.0  0.23960  0.70150  0.05520  1.0000
  C   C4        1.0  0.27835  0.45090  0.95360  1.0000
  C   C5        1.0  0.47735  0.19490  0.87090  1.0000
  C   C6        1.0  0.38425  0.10440  0.78180  1.0000
  O   O9        1.0  0.49665  0.11530  0.93370  1.0000
  O   O10       1.0  0.02775  0.33970  0.87330  1.0000
  O   O11       1.0  0.36720  0.18320  0.71680  1.0000
  O   O12       1.0  0.33160  0.96040  0.77670  1.0000
  O   O13       1.0  0.00335  0.88470  0.06630  1.0000
  O   O14       1.0  0.47225  0.66030  0.12670  1.0000
  O   O15       1.0  0.13280  0.81680  0.28320  1.0000
  O   O16       1.0  0.16840  0.03960  0.22330  1.0000
  C   C7        1.0  0.02265  0.80510  0.12910  1.0000
  C   C8        1.0  0.11575  0.89560  0.21820  1.0000
  C   C9        1.0  0.10740  0.79230  0.86920  1.0000
  O   O17       1.0  0.14840  0.66760  0.83790  1.0000
  O   O18       1.0  0.17005  0.93230  0.92440  1.0000
  O   O19       1.0  0.00620  0.76910  0.84010  1.0000
  C   C10       1.0  0.39260  0.20770  0.13080  1.0000
  O   O20       1.0  0.35160  0.33240  0.16210  1.0000
  O   O21       1.0  0.32995  0.06770  0.07560  1.0000
  O   O22       1.0  0.49380  0.23090  0.15990  1.0000
  Gd  Gd1       1.0  0.47057  0.47102  0.74245  1.0000
  Gd  Gd2       1.0  0.02942  0.52898  0.25755  1.0000
  Gd  Gd3       1.0  0.15469  0.16662  0.07512  1.0000
  Gd  Gd4       1.0  0.34531  0.83338  0.92488  1.0000
  C   C11       1.0  0.95140  0.41950  0.48000  1.0000
  O   O23       1.0  0.59245  0.64730  0.45270  1.0000
  O   O24       1.0  0.57225  0.62810  0.61950  1.0000
  O   O25       1.0  0.90755  0.35270  0.54730  1.0000
  O   O26       1.0  0.92775  0.37190  0.38050  1.0000
  C   C12       1.0  0.54860  0.58050  0.52000  1.0000
  O   O27       1.0  0.83560  0.52820  0.89770  1.0000
  C   C13       1.0  0.72165  0.54910  0.04640  1.0000
  O   O28       1.0  0.76040  0.29850  0.94480  1.0000
  O   O29       1.0  0.66440  0.47180  0.10230  1.0000
  O   O30       1.0  0.73960  0.70150  0.05520  1.0000
  C   C14       1.0  0.77835  0.45090  0.95360  1.0000
  C   C15       1.0  0.97735  0.19490  0.87090  1.0000
  C   C16       1.0  0.88425  0.10440  0.78180  1.0000
  O   O31       1.0  0.99665  0.11530  0.93370  1.0000
  O   O32       1.0  0.52775  0.33970  0.87330  1.0000
  O   O33       1.0  0.86720  0.18320  0.71680  1.0000
  O   O34       1.0  0.83160  0.96040  0.77670  1.0000
  O   O35       1.0  0.50335  0.88470  0.06630  1.0000
  O   O36       1.0  0.97225  0.66030  0.12670  1.0000
  O   O37       1.0  0.63280  0.81680  0.28320  1.0000
  O   O38       1.0  0.66840  0.03960  0.22330  1.0000
  C   C17       1.0  0.52265  0.80510  0.12910  1.0000
  C   C18       1.0  0.61575  0.89560  0.21820  1.0000
  C   C19       1.0  0.60740  0.79230  0.86920  1.0000
  O   O39       1.0  0.64840  0.66760  0.83790  1.0000
  O   O40       1.0  0.67005  0.93230  0.92440  1.0000
  O   O41       1.0  0.50620  0.76910  0.84010  1.0000
  C   C20       1.0  0.89260  0.20770  0.13080  1.0000
  O   O42       1.0  0.85160  0.33240  0.16210  1.0000
  O   O43       1.0  0.82995  0.06770  0.07560  1.0000
  O   O44       1.0  0.99380  0.23090  0.15990  1.0000
  Gd  Gd5       1.0  0.97057  0.47102  0.74245  1.0000
  Gd  Gd6       1.0  0.52943  0.52898  0.25755  1.0000
  Gd  Gd7       1.0  0.65469  0.16662  0.07512  1.0000
  Gd  Gd8       1.0  0.84531  0.83338  0.92488  1.0000
