data_image0
_chemical_formula_structural       O2CO2CO4C3O2CO4C2O5C2O3NdONd2ONdO2CO2CO4C3O2CO4C2O5C2O3NdONd2ONd
_chemical_formula_sum              "O48 C20 Nd8"
_cell_length_a       12.5192
_cell_length_b       8.6108
_cell_length_c       12.9187
_cell_angle_alpha    105.366
_cell_angle_beta     90.451
_cell_angle_gamma    105.115

_space_group_name_H-M_alt    "P 1"
_space_group_IT_number       1

loop_
  _space_group_symop_operation_xyz
  'x, y, z'

loop_
  _atom_site_type_symbol
  _atom_site_label
  _atom_site_symmetry_multiplicity
  _atom_site_fract_x
  _atom_site_fract_y
  _atom_site_fract_z
  _atom_site_occupancy
  O   O1        1.0  0.42945  0.86960  0.88010  1.0000
  O   O2        1.0  0.09160  0.15090  0.95320  1.0000
  C   C1        1.0  0.45260  0.91800  0.97730  1.0000
  O   O3        1.0  0.07055  0.13040  0.11990  1.0000
  O   O4        1.0  0.40840  0.84910  0.04680  1.0000
  C   C2        1.0  0.04740  0.08200  0.02270  1.0000
  O   O5        1.0  0.47180  0.15670  0.62610  1.0000
  O   O6        1.0  0.13370  0.31590  0.78240  1.0000
  O   O7        1.0  0.00260  0.38410  0.56580  1.0000
  O   O8        1.0  0.16880  0.54280  0.72280  1.0000
  C   C3        1.0  0.02220  0.30290  0.62750  1.0000
  C   C4        1.0  0.11485  0.39490  0.71940  1.0000
  C   C5        1.0  0.27875  0.94920  0.45460  1.0000
  O   O9        1.0  0.23980  0.20200  0.55490  1.0000
  O   O10       1.0  0.16330  0.97050  0.60340  1.0000
  C   C6        1.0  0.22125  0.05080  0.54540  1.0000
  O   O11       1.0  0.26020  0.79800  0.44510  1.0000
  O   O12       1.0  0.33670  0.02950  0.39660  1.0000
  O   O13       1.0  0.49740  0.61590  0.43420  1.0000
  O   O14       1.0  0.33120  0.45720  0.27720  1.0000
  C   C7        1.0  0.47780  0.69710  0.37250  1.0000
  C   C8        1.0  0.38515  0.60510  0.28060  1.0000
  O   O15       1.0  0.02820  0.84330  0.37390  1.0000
  O   O16       1.0  0.36630  0.68410  0.21760  1.0000
  O   O17       1.0  0.35100  0.83320  0.66270  1.0000
  O   O18       1.0  0.49455  0.73100  0.65960  1.0000
  O   O19       1.0  0.33065  0.56690  0.57490  1.0000
  C   C9        1.0  0.39240  0.70780  0.63070  1.0000
  C   C10       1.0  0.10760  0.29220  0.36930  1.0000
  O   O20       1.0  0.14900  0.16680  0.33730  1.0000
  O   O21       1.0  0.00545  0.26900  0.34040  1.0000
  O   O22       1.0  0.16935  0.43310  0.42510  1.0000
  Nd  Nd1       1.0  0.02888  0.02794  0.75760  1.0000
  O   O23       1.0  0.17985  0.89820  0.79490  1.0000
  Nd  Nd2       1.0  0.15456  0.66677  0.57506  1.0000
  Nd  Nd3       1.0  0.47112  0.97206  0.24240  1.0000
  O   O24       1.0  0.32015  0.10180  0.20510  1.0000
  Nd  Nd4       1.0  0.34544  0.33323  0.42494  1.0000
  O   O25       1.0  0.92945  0.86960  0.88010  1.0000
  O   O26       1.0  0.59160  0.15090  0.95320  1.0000
  C   C11       1.0  0.95260  0.91800  0.97730  1.0000
  O   O27       1.0  0.57055  0.13040  0.11990  1.0000
  O   O28       1.0  0.90840  0.84910  0.04680  1.0000
  C   C12       1.0  0.54740  0.08200  0.02270  1.0000
  O   O29       1.0  0.97180  0.15670  0.62610  1.0000
  O   O30       1.0  0.63370  0.31590  0.78240  1.0000
  O   O31       1.0  0.50260  0.38410  0.56580  1.0000
  O   O32       1.0  0.66880  0.54280  0.72280  1.0000
  C   C13       1.0  0.52220  0.30290  0.62750  1.0000
  C   C14       1.0  0.61485  0.39490  0.71940  1.0000
  C   C15       1.0  0.77875  0.94920  0.45460  1.0000
  O   O33       1.0  0.73980  0.20200  0.55490  1.0000
  O   O34       1.0  0.66330  0.97050  0.60340  1.0000
  C   C16       1.0  0.72125  0.05080  0.54540  1.0000
  O   O35       1.0  0.76020  0.79800  0.44510  1.0000
  O   O36       1.0  0.83670  0.02950  0.39660  1.0000
  O   O37       1.0  0.99740  0.61590  0.43420  1.0000
  O   O38       1.0  0.83120  0.45720  0.27720  1.0000
  C   C17       1.0  0.97780  0.69710  0.37250  1.0000
  C   C18       1.0  0.88515  0.60510  0.28060  1.0000
  O   O39       1.0  0.52820  0.84330  0.37390  1.0000
  O   O40       1.0  0.86630  0.68410  0.21760  1.0000
  O   O41       1.0  0.85100  0.83320  0.66270  1.0000
  O   O42       1.0  0.99455  0.73100  0.65960  1.0000
  O   O43       1.0  0.83065  0.56690  0.57490  1.0000
  C   C19       1.0  0.89240  0.70780  0.63070  1.0000
  C   C20       1.0  0.60760  0.29220  0.36930  1.0000
  O   O44       1.0  0.64900  0.16680  0.33730  1.0000
  O   O45       1.0  0.50545  0.26900  0.34040  1.0000
  O   O46       1.0  0.66935  0.43310  0.42510  1.0000
  Nd  Nd5       1.0  0.52888  0.02794  0.75760  1.0000
  O   O47       1.0  0.67985  0.89820  0.79490  1.0000
  Nd  Nd6       1.0  0.65456  0.66677  0.57506  1.0000
  Nd  Nd7       1.0  0.97112  0.97206  0.24240  1.0000
  O   O48       1.0  0.82015  0.10180  0.20510  1.0000
  Nd  Nd8       1.0  0.84544  0.33323  0.42494  1.0000
