data_image0
_chemical_formula_structural       O2CO2C2O2CO6C2O2C2O3CO5CPrOPr2OPrO2CO2C2O2CO6C2O2C2O3CO5CPrOPr2OPr
_chemical_formula_sum              "O48 C20 Pr8"
_cell_length_a       12.5192
_cell_length_b       8.6136
_cell_length_c       12.9309
_cell_angle_alpha    105.43
_cell_angle_beta     90.422
_cell_angle_gamma    105.069

_space_group_name_H-M_alt    "P 1"
_space_group_IT_number       1

loop_
  _space_group_symop_operation_xyz
  'x, y, z'

loop_
  _atom_site_type_symbol
  _atom_site_label
  _atom_site_symmetry_multiplicity
  _atom_site_fract_x
  _atom_site_fract_y
  _atom_site_fract_z
  _atom_site_occupancy
  O   O1        1.0  0.15810  0.84870  0.04750  1.0000
  O   O2        1.0  0.17875  0.86670  0.87860  1.0000
  C   C1        1.0  0.20200  0.91900  0.97950  1.0000
  O   O3        1.0  0.34190  0.15130  0.95250  1.0000
  O   O4        1.0  0.32125  0.13330  0.12140  1.0000
  C   C2        1.0  0.29800  0.08100  0.02050  1.0000
  C   C3        1.0  0.47245  0.05190  0.54420  1.0000
  O   O5        1.0  0.49045  0.20250  0.55530  1.0000
  O   O6        1.0  0.08685  0.02840  0.39570  1.0000
  C   C4        1.0  0.02755  0.94810  0.45580  1.0000
  O   O7        1.0  0.00955  0.79750  0.44470  1.0000
  O   O8        1.0  0.41315  0.97160  0.60430  1.0000
  O   O9        1.0  0.27820  0.84320  0.37380  1.0000
  O   O10       1.0  0.11695  0.68320  0.21730  1.0000
  O   O11       1.0  0.24695  0.61500  0.43450  1.0000
  O   O12       1.0  0.08330  0.45740  0.27720  1.0000
  C   C5        1.0  0.22890  0.69790  0.37250  1.0000
  C   C6        1.0  0.13400  0.60560  0.28190  1.0000
  O   O13       1.0  0.25305  0.38500  0.56550  1.0000
  O   O14       1.0  0.41670  0.54260  0.72280  1.0000
  C   C7        1.0  0.27110  0.30210  0.62750  1.0000
  C   C8        1.0  0.36600  0.39440  0.71810  1.0000
  O   O15       1.0  0.22180  0.15680  0.62620  1.0000
  O   O16       1.0  0.38305  0.31680  0.78270  1.0000
  O   O17       1.0  0.42035  0.43370  0.42500  1.0000
  C   C9        1.0  0.35700  0.29450  0.36980  1.0000
  O   O18       1.0  0.40000  0.16780  0.33790  1.0000
  O   O19       1.0  0.25485  0.26890  0.34080  1.0000
  O   O20       1.0  0.10000  0.83220  0.66210  1.0000
  O   O21       1.0  0.24515  0.73110  0.65920  1.0000
  O   O22       1.0  0.07965  0.56630  0.57500  1.0000
  C   C10       1.0  0.14300  0.70550  0.63020  1.0000
  Pr  Pr1       1.0  0.22115  0.97171  0.24225  1.0000
  O   O23       1.0  0.06980  0.10150  0.20460  1.0000
  Pr  Pr2       1.0  0.09543  0.33350  0.42496  1.0000
  Pr  Pr3       1.0  0.27886  0.02829  0.75775  1.0000
  O   O24       1.0  0.43020  0.89850  0.79540  1.0000
  Pr  Pr4       1.0  0.40457  0.66650  0.57504  1.0000
  O   O25       1.0  0.65810  0.84870  0.04750  1.0000
  O   O26       1.0  0.67875  0.86670  0.87860  1.0000
  C   C11       1.0  0.70200  0.91900  0.97950  1.0000
  O   O27       1.0  0.84190  0.15130  0.95250  1.0000
  O   O28       1.0  0.82125  0.13330  0.12140  1.0000
  C   C12       1.0  0.79800  0.08100  0.02050  1.0000
  C   C13       1.0  0.97245  0.05190  0.54420  1.0000
  O   O29       1.0  0.99045  0.20250  0.55530  1.0000
  O   O30       1.0  0.58685  0.02840  0.39570  1.0000
  C   C14       1.0  0.52755  0.94810  0.45580  1.0000
  O   O31       1.0  0.50955  0.79750  0.44470  1.0000
  O   O32       1.0  0.91315  0.97160  0.60430  1.0000
  O   O33       1.0  0.77820  0.84320  0.37380  1.0000
  O   O34       1.0  0.61695  0.68320  0.21730  1.0000
  O   O35       1.0  0.74695  0.61500  0.43450  1.0000
  O   O36       1.0  0.58330  0.45740  0.27720  1.0000
  C   C15       1.0  0.72890  0.69790  0.37250  1.0000
  C   C16       1.0  0.63400  0.60560  0.28190  1.0000
  O   O37       1.0  0.75305  0.38500  0.56550  1.0000
  O   O38       1.0  0.91670  0.54260  0.72280  1.0000
  C   C17       1.0  0.77110  0.30210  0.62750  1.0000
  C   C18       1.0  0.86600  0.39440  0.71810  1.0000
  O   O39       1.0  0.72180  0.15680  0.62620  1.0000
  O   O40       1.0  0.88305  0.31680  0.78270  1.0000
  O   O41       1.0  0.92035  0.43370  0.42500  1.0000
  C   C19       1.0  0.85700  0.29450  0.36980  1.0000
  O   O42       1.0  0.90000  0.16780  0.33790  1.0000
  O   O43       1.0  0.75485  0.26890  0.34080  1.0000
  O   O44       1.0  0.60000  0.83220  0.66210  1.0000
  O   O45       1.0  0.74515  0.73110  0.65920  1.0000
  O   O46       1.0  0.57965  0.56630  0.57500  1.0000
  C   C20       1.0  0.64300  0.70550  0.63020  1.0000
  Pr  Pr5       1.0  0.72115  0.97171  0.24225  1.0000
  O   O47       1.0  0.56980  0.10150  0.20460  1.0000
  Pr  Pr6       1.0  0.59543  0.33350  0.42496  1.0000
  Pr  Pr7       1.0  0.77885  0.02829  0.75775  1.0000
  O   O48       1.0  0.93020  0.89850  0.79540  1.0000
  Pr  Pr8       1.0  0.90457  0.66650  0.57504  1.0000
