data_image0
_chemical_formula_structural       CO2CO2CO2CO2CO2CO4CO2CO2CO3COTb4CO2CO2CO2CO2CO2CO4CO2CO2CO3COTb4
_chemical_formula_sum              "C20 O44 Tb8"
_cell_length_a       12.5446
_cell_length_b       8.6246
_cell_length_c       12.9484
_cell_angle_alpha    105.348
_cell_angle_beta     90.404
_cell_angle_gamma    105.058

_space_group_name_H-M_alt    "P 1"
_space_group_IT_number       1

loop_
  _space_group_symop_operation_xyz
  'x, y, z'

loop_
  _atom_site_type_symbol
  _atom_site_label
  _atom_site_symmetry_multiplicity
  _atom_site_fract_x
  _atom_site_fract_y
  _atom_site_fract_z
  _atom_site_occupancy
  C   C1        1.0  0.38425  0.10600  0.28050  1.0000
  O   O1        1.0  0.49780  0.11480  0.43320  1.0000
  O   O2        1.0  0.36820  0.18420  0.21670  1.0000
  C   C2        1.0  0.47930  0.19620  0.37180  1.0000
  O   O3        1.0  0.02875  0.34300  0.37470  1.0000
  O   O4        1.0  0.33040  0.96020  0.27780  1.0000
  C   C3        1.0  0.02070  0.80380  0.62820  1.0000
  O   O5        1.0  0.16960  0.03980  0.72220  1.0000
  O   O6        1.0  0.47125  0.65700  0.62530  1.0000
  C   C4        1.0  0.11575  0.89400  0.71950  1.0000
  O   O7        1.0  0.13180  0.81580  0.78330  1.0000
  O   O8        1.0  0.00220  0.88520  0.56680  1.0000
  C   C5        1.0  0.27700  0.44940  0.45400  1.0000
  O   O9        1.0  0.16420  0.47160  0.60280  1.0000
  O   O10       1.0  0.26065  0.29740  0.44440  1.0000
  C   C6        1.0  0.22300  0.55060  0.54600  1.0000
  O   O11       1.0  0.33580  0.52840  0.39720  1.0000
  O   O12       1.0  0.23935  0.70260  0.55560  1.0000
  O   O13       1.0  0.40760  0.34970  0.04710  1.0000
  O   O14       1.0  0.07100  0.63090  0.12070  1.0000
  C   C7        1.0  0.45295  0.41850  0.97850  1.0000
  O   O15       1.0  0.09240  0.65030  0.95290  1.0000
  O   O16       1.0  0.42900  0.36910  0.87930  1.0000
  C   C8        1.0  0.04705  0.58150  0.02150  1.0000
  O   O17       1.0  0.35025  0.33130  0.66210  1.0000
  O   O18       1.0  0.33045  0.06740  0.57500  1.0000
  C   C9        1.0  0.39205  0.20600  0.63170  1.0000
  O   O19       1.0  0.49340  0.23110  0.65930  1.0000
  O   O20       1.0  0.14975  0.66870  0.33790  1.0000
  O   O21       1.0  0.16955  0.93260  0.42500  1.0000
  C   C10       1.0  0.10795  0.79400  0.36830  1.0000
  O   O22       1.0  0.00660  0.76890  0.34070  1.0000
  Tb  Tb1       1.0  0.15461  0.16653  0.57501  1.0000
  Tb  Tb2       1.0  0.02898  0.52809  0.75763  1.0000
  Tb  Tb3       1.0  0.47102  0.47191  0.24237  1.0000
  Tb  Tb4       1.0  0.34539  0.83347  0.42499  1.0000
  C   C11       1.0  0.88425  0.10600  0.28050  1.0000
  O   O23       1.0  0.99780  0.11480  0.43320  1.0000
  O   O24       1.0  0.86820  0.18420  0.21670  1.0000
  C   C12       1.0  0.97930  0.19620  0.37180  1.0000
  O   O25       1.0  0.52875  0.34300  0.37470  1.0000
  O   O26       1.0  0.83040  0.96020  0.27780  1.0000
  C   C13       1.0  0.52070  0.80380  0.62820  1.0000
  O   O27       1.0  0.66960  0.03980  0.72220  1.0000
  O   O28       1.0  0.97125  0.65700  0.62530  1.0000
  C   C14       1.0  0.61575  0.89400  0.71950  1.0000
  O   O29       1.0  0.63180  0.81580  0.78330  1.0000
  O   O30       1.0  0.50220  0.88520  0.56680  1.0000
  C   C15       1.0  0.77700  0.44940  0.45400  1.0000
  O   O31       1.0  0.66420  0.47160  0.60280  1.0000
  O   O32       1.0  0.76065  0.29740  0.44440  1.0000
  C   C16       1.0  0.72300  0.55060  0.54600  1.0000
  O   O33       1.0  0.83580  0.52840  0.39720  1.0000
  O   O34       1.0  0.73935  0.70260  0.55560  1.0000
  O   O35       1.0  0.90760  0.34970  0.04710  1.0000
  O   O36       1.0  0.57100  0.63090  0.12070  1.0000
  C   C17       1.0  0.95295  0.41850  0.97850  1.0000
  O   O37       1.0  0.59240  0.65030  0.95290  1.0000
  O   O38       1.0  0.92900  0.36910  0.87930  1.0000
  C   C18       1.0  0.54705  0.58150  0.02150  1.0000
  O   O39       1.0  0.85025  0.33130  0.66210  1.0000
  O   O40       1.0  0.83045  0.06740  0.57500  1.0000
  C   C19       1.0  0.89205  0.20600  0.63170  1.0000
  O   O41       1.0  0.99340  0.23110  0.65930  1.0000
  O   O42       1.0  0.64975  0.66870  0.33790  1.0000
  O   O43       1.0  0.66955  0.93260  0.42500  1.0000
  C   C20       1.0  0.60795  0.79400  0.36830  1.0000
  O   O44       1.0  0.50660  0.76890  0.34070  1.0000
  Tb  Tb5       1.0  0.65461  0.16653  0.57501  1.0000
  Tb  Tb6       1.0  0.52898  0.52809  0.75763  1.0000
  Tb  Tb7       1.0  0.97102  0.47191  0.24237  1.0000
  Tb  Tb8       1.0  0.84539  0.83347  0.42499  1.0000
