data_image0
_chemical_formula_structural       O6HOC3HC2HC2HC3HCHC2HCHCO6HOC3HC2HC2HC3HCHC2HCHCO6HOC3HC2HC2HC3HCHC2HCHCO6HOC3HC2HC2HC3HCHC2HCHCO7C2HCHC2HCHC3HC2HC2HC2O7C2HCHC2HCHC3HC2HC2HC2O3C2HCHC2HCHC3HC2HC2HC2O11C2HCHC2HCHC3HC2HC2HC2Cd8
_chemical_formula_sum              "O56 H60 C120 Cd8"
_cell_length_a       13.926
_cell_length_b       16.59
_cell_length_c       16.181
_cell_angle_alpha    90
_cell_angle_beta     110.296
_cell_angle_gamma    90

_space_group_name_H-M_alt    "P 1"
_space_group_IT_number       1

loop_
  _space_group_symop_operation_xyz
  'x, y, z'

loop_
  _atom_site_type_symbol
  _atom_site_label
  _atom_site_symmetry_multiplicity
  _atom_site_fract_x
  _atom_site_fract_y
  _atom_site_fract_z
  _atom_site_occupancy
  O   O1        1.0  0.34638  0.39060  0.08587  1.0000
  O   O2        1.0  0.17953  0.39858  0.05386  1.0000
  O   O3        1.0  0.49016  0.11780  0.08315  1.0000
  O   O4        1.0  0.39290  0.01991  0.00380  1.0000
  O   O5        1.0  0.03597  0.14084  0.89910  1.0000
  O   O6        1.0  0.93420  0.09200  0.49139  1.0000
  H   H1        1.0  0.90450  0.08210  0.43910  1.0000
  O   O7        1.0  0.77977  0.06690  0.49827  1.0000
  C   C1        1.0  0.25750  0.36210  0.05270  1.0000
  C   C2        1.0  0.24440  0.27910  0.01350  1.0000
  C   C3        1.0  0.14680  0.24930  0.96760  1.0000
  H   H2        1.0  0.08980  0.28230  0.95650  1.0000
  C   C4        1.0  0.13550  0.17040  0.93870  1.0000
  C   C5        1.0  0.21910  0.11920  0.95610  1.0000
  H   H3        1.0  0.21030  0.06610  0.93650  1.0000
  C   C6        1.0  0.31620  0.14870  0.00342  1.0000
  C   C7        1.0  0.32870  0.22870  0.03070  1.0000
  H   H4        1.0  0.39400  0.24860  0.06060  1.0000
  C   C8        1.0  0.40540  0.09230  0.03070  1.0000
  C   C9        1.0  0.99980  0.12860  0.80880  1.0000
  C   C10       1.0  0.89750  0.10780  0.77170  1.0000
  H   H5        1.0  0.85720  0.10290  0.80690  1.0000
  C   C11       1.0  0.85620  0.09470  0.68280  1.0000
  H   H6        1.0  0.78760  0.08030  0.65780  1.0000
  C   C12       1.0  0.91490  0.10250  0.62940  1.0000
  C   C13       1.0  0.01740  0.12170  0.66790  1.0000
  H   H7        1.0  0.05830  0.12540  0.63330  1.0000
  C   C14       1.0  0.05930  0.13560  0.75730  1.0000
  H   H8        1.0  0.12800  0.14970  0.78270  1.0000
  C   C15       1.0  0.86940  0.08570  0.53410  1.0000
  O   O8        1.0  0.65362  0.89060  0.41413  1.0000
  O   O9        1.0  0.82047  0.89858  0.44614  1.0000
  O   O10       1.0  0.50984  0.61780  0.41685  1.0000
  O   O11       1.0  0.60710  0.51991  0.49620  1.0000
  O   O12       1.0  0.96403  0.64084  0.60090  1.0000
  O   O13       1.0  0.06580  0.59200  0.00861  1.0000
  H   H9        1.0  0.09550  0.58210  0.06090  1.0000
  O   O14       1.0  0.22023  0.56690  0.00173  1.0000
  C   C16       1.0  0.74250  0.86210  0.44730  1.0000
  C   C17       1.0  0.75560  0.77910  0.48650  1.0000
  C   C18       1.0  0.85320  0.74930  0.53240  1.0000
  H   H10       1.0  0.91020  0.78230  0.54350  1.0000
  C   C19       1.0  0.86450  0.67040  0.56130  1.0000
  C   C20       1.0  0.78090  0.61920  0.54390  1.0000
  H   H11       1.0  0.78970  0.56610  0.56350  1.0000
  C   C21       1.0  0.68380  0.64870  0.49658  1.0000
  C   C22       1.0  0.67130  0.72870  0.46930  1.0000
  H   H12       1.0  0.60600  0.74860  0.43940  1.0000
  C   C23       1.0  0.59460  0.59230  0.46930  1.0000
  C   C24       1.0  0.00020  0.62860  0.69120  1.0000
  C   C25       1.0  0.10250  0.60780  0.72830  1.0000
  H   H13       1.0  0.14280  0.60290  0.69310  1.0000
  C   C26       1.0  0.14380  0.59470  0.81720  1.0000
  H   H14       1.0  0.21240  0.58030  0.84220  1.0000
  C   C27       1.0  0.08510  0.60250  0.87060  1.0000
  C   C28       1.0  0.98260  0.62170  0.83210  1.0000
  H   H15       1.0  0.94170  0.62540  0.86670  1.0000
  C   C29       1.0  0.94070  0.63560  0.74270  1.0000
  H   H16       1.0  0.87200  0.64970  0.71730  1.0000
  C   C30       1.0  0.13060  0.58570  0.96590  1.0000
  O   O15       1.0  0.65362  0.60940  0.91413  1.0000
  O   O16       1.0  0.82047  0.60142  0.94614  1.0000
  O   O17       1.0  0.50984  0.88220  0.91685  1.0000
  O   O18       1.0  0.60710  0.98009  0.99620  1.0000
  O   O19       1.0  0.96403  0.85916  0.10090  1.0000
  O   O20       1.0  0.06580  0.90800  0.50861  1.0000
  H   H17       1.0  0.09550  0.91790  0.56090  1.0000
  O   O21       1.0  0.22023  0.93310  0.50173  1.0000
  C   C31       1.0  0.74250  0.63790  0.94730  1.0000
  C   C32       1.0  0.75560  0.72090  0.98650  1.0000
  C   C33       1.0  0.85320  0.75070  0.03240  1.0000
  H   H18       1.0  0.91020  0.71770  0.04350  1.0000
  C   C34       1.0  0.86450  0.82960  0.06130  1.0000
  C   C35       1.0  0.78090  0.88080  0.04390  1.0000
  H   H19       1.0  0.78970  0.93390  0.06350  1.0000
  C   C36       1.0  0.68380  0.85130  0.99658  1.0000
  C   C37       1.0  0.67130  0.77130  0.96930  1.0000
  H   H20       1.0  0.60600  0.75140  0.93940  1.0000
  C   C38       1.0  0.59460  0.90770  0.96930  1.0000
  C   C39       1.0  0.00020  0.87140  0.19120  1.0000
  C   C40       1.0  0.10250  0.89220  0.22830  1.0000
  H   H21       1.0  0.14280  0.89710  0.19310  1.0000
  C   C41       1.0  0.14380  0.90530  0.31720  1.0000
  H   H22       1.0  0.21240  0.91970  0.34220  1.0000
  C   C42       1.0  0.08510  0.89750  0.37060  1.0000
  C   C43       1.0  0.98260  0.87830  0.33210  1.0000
  H   H23       1.0  0.94170  0.87460  0.36670  1.0000
  C   C44       1.0  0.94070  0.86440  0.24270  1.0000
  H   H24       1.0  0.87200  0.85030  0.21730  1.0000
  C   C45       1.0  0.13060  0.91430  0.46590  1.0000
  O   O22       1.0  0.34638  0.10940  0.58587  1.0000
  O   O23       1.0  0.17953  0.10142  0.55386  1.0000
  O   O24       1.0  0.49016  0.38220  0.58315  1.0000
  O   O25       1.0  0.39290  0.48009  0.50380  1.0000
  O   O26       1.0  0.03597  0.35916  0.39910  1.0000
  O   O27       1.0  0.93420  0.40800  0.99139  1.0000
  H   H25       1.0  0.90450  0.41790  0.93910  1.0000
  O   O28       1.0  0.77977  0.43310  0.99827  1.0000
  C   C46       1.0  0.25750  0.13790  0.55270  1.0000
  C   C47       1.0  0.24440  0.22090  0.51350  1.0000
  C   C48       1.0  0.14680  0.25070  0.46760  1.0000
  H   H26       1.0  0.08980  0.21770  0.45650  1.0000
  C   C49       1.0  0.13550  0.32960  0.43870  1.0000
  C   C50       1.0  0.21910  0.38080  0.45610  1.0000
  H   H27       1.0  0.21030  0.43390  0.43650  1.0000
  C   C51       1.0  0.31620  0.35130  0.50342  1.0000
  C   C52       1.0  0.32870  0.27130  0.53070  1.0000
  H   H28       1.0  0.39400  0.25140  0.56060  1.0000
  C   C53       1.0  0.40540  0.40770  0.53070  1.0000
  C   C54       1.0  0.99980  0.37140  0.30880  1.0000
  C   C55       1.0  0.89750  0.39220  0.27170  1.0000
  H   H29       1.0  0.85720  0.39710  0.30690  1.0000
  C   C56       1.0  0.85620  0.40530  0.18280  1.0000
  H   H30       1.0  0.78760  0.41970  0.15780  1.0000
  C   C57       1.0  0.91490  0.39750  0.12940  1.0000
  C   C58       1.0  0.01740  0.37830  0.16790  1.0000
  H   H31       1.0  0.05830  0.37460  0.13330  1.0000
  C   C59       1.0  0.05930  0.36440  0.25730  1.0000
  H   H32       1.0  0.12800  0.35030  0.28270  1.0000
  C   C60       1.0  0.86940  0.41430  0.03410  1.0000
  O   O29       1.0  0.26894  0.57761  0.31720  1.0000
  O   O30       1.0  0.16677  0.55185  0.17982  1.0000
  O   O31       1.0  0.83909  0.62677  0.36021  1.0000
  O   O32       1.0  0.69717  0.90443  0.23198  1.0000
  O   O33       1.0  0.54441  0.87243  0.13729  1.0000
  O   O34       1.0  0.47610  0.51847  0.25054  1.0000
  O   O35       1.0  0.38976  0.61400  0.16068  1.0000
  C   C61       1.0  0.18100  0.57138  0.25870  1.0000
  C   C62       1.0  0.09850  0.59620  0.37090  1.0000
  H   H33       1.0  0.16260  0.59120  0.41450  1.0000
  C   C63       1.0  0.01440  0.60980  0.39500  1.0000
  H   H34       1.0  0.02140  0.61280  0.45420  1.0000
  C   C64       1.0  0.92000  0.61870  0.33050  1.0000
  C   C65       1.0  0.90930  0.61480  0.24260  1.0000
  H   H35       1.0  0.84540  0.62240  0.19930  1.0000
  C   C66       1.0  0.99360  0.59970  0.21910  1.0000
  H   H36       1.0  0.98630  0.59590  0.15980  1.0000
  C   C67       1.0  0.09000  0.58990  0.28360  1.0000
  C   C68       1.0  0.74540  0.65680  0.30370  1.0000
  C   C69       1.0  0.73700  0.73690  0.27790  1.0000
  H   H37       1.0  0.79440  0.77010  0.29450  1.0000
  C   C70       1.0  0.64180  0.76690  0.22710  1.0000
  C   C71       1.0  0.55710  0.71700  0.20540  1.0000
  H   H38       1.0  0.49350  0.73680  0.17050  1.0000
  C   C72       1.0  0.56570  0.63750  0.23500  1.0000
  C   C73       1.0  0.66130  0.60690  0.28400  1.0000
  H   H39       1.0  0.66850  0.55360  0.30310  1.0000
  C   C74       1.0  0.62800  0.85360  0.19800  1.0000
  C   C75       1.0  0.47100  0.58720  0.21490  1.0000
  O   O36       1.0  0.73106  0.07761  0.18280  1.0000
  O   O37       1.0  0.83323  0.05185  0.32018  1.0000
  O   O38       1.0  0.16091  0.12677  0.13979  1.0000
  O   O39       1.0  0.30283  0.40443  0.26802  1.0000
  O   O40       1.0  0.45559  0.37243  0.36271  1.0000
  O   O41       1.0  0.52390  0.01847  0.24946  1.0000
  O   O42       1.0  0.61024  0.11400  0.33932  1.0000
  C   C76       1.0  0.81900  0.07138  0.24130  1.0000
  C   C77       1.0  0.90150  0.09620  0.12910  1.0000
  H   H40       1.0  0.83740  0.09120  0.08550  1.0000
  C   C78       1.0  0.98560  0.10980  0.10500  1.0000
  H   H41       1.0  0.97860  0.11280  0.04580  1.0000
  C   C79       1.0  0.08000  0.11870  0.16950  1.0000
  C   C80       1.0  0.09070  0.11480  0.25740  1.0000
  H   H42       1.0  0.15460  0.12240  0.30070  1.0000
  C   C81       1.0  0.00640  0.09970  0.28090  1.0000
  H   H43       1.0  0.01370  0.09590  0.34020  1.0000
  C   C82       1.0  0.91000  0.08990  0.21640  1.0000
  C   C83       1.0  0.25460  0.15680  0.19630  1.0000
  C   C84       1.0  0.26300  0.23690  0.22210  1.0000
  H   H44       1.0  0.20560  0.27010  0.20550  1.0000
  C   C85       1.0  0.35820  0.26690  0.27290  1.0000
  C   C86       1.0  0.44290  0.21700  0.29460  1.0000
  H   H45       1.0  0.50650  0.23680  0.32950  1.0000
  C   C87       1.0  0.43430  0.13750  0.26500  1.0000
  C   C88       1.0  0.33870  0.10690  0.21600  1.0000
  H   H46       1.0  0.33150  0.05360  0.19690  1.0000
  C   C89       1.0  0.37200  0.35360  0.30200  1.0000
  C   C90       1.0  0.52900  0.08720  0.28510  1.0000
  O   O43       1.0  0.45559  0.12757  0.86271  1.0000
  O   O44       1.0  0.52390  0.48153  0.74946  1.0000
  O   O45       1.0  0.61024  0.38600  0.83932  1.0000
  C   C91       1.0  0.81900  0.42862  0.74130  1.0000
  C   C92       1.0  0.90150  0.40380  0.62910  1.0000
  H   H47       1.0  0.83740  0.40880  0.58550  1.0000
  C   C93       1.0  0.98560  0.39020  0.60500  1.0000
  H   H48       1.0  0.97860  0.38720  0.54580  1.0000
  C   C94       1.0  0.08000  0.38130  0.66950  1.0000
  C   C95       1.0  0.09070  0.38520  0.75740  1.0000
  H   H49       1.0  0.15460  0.37760  0.80070  1.0000
  C   C96       1.0  0.00640  0.40030  0.78090  1.0000
  H   H50       1.0  0.01370  0.40410  0.84020  1.0000
  C   C97       1.0  0.91000  0.41010  0.71640  1.0000
  C   C98       1.0  0.25460  0.34320  0.69630  1.0000
  C   C99       1.0  0.26300  0.26310  0.72210  1.0000
  H   H51       1.0  0.20560  0.22990  0.70550  1.0000
  C   C100      1.0  0.35820  0.23310  0.77290  1.0000
  C   C101      1.0  0.44290  0.28300  0.79460  1.0000
  H   H52       1.0  0.50650  0.26320  0.82950  1.0000
  C   C102      1.0  0.43430  0.36250  0.76500  1.0000
  C   C103      1.0  0.33870  0.39310  0.71600  1.0000
  H   H53       1.0  0.33150  0.44640  0.69690  1.0000
  C   C104      1.0  0.37200  0.14640  0.80200  1.0000
  C   C105      1.0  0.52900  0.41280  0.78510  1.0000
  O   O46       1.0  0.73106  0.42239  0.68280  1.0000
  O   O47       1.0  0.83323  0.44815  0.82018  1.0000
  O   O48       1.0  0.16091  0.37323  0.63979  1.0000
  O   O49       1.0  0.30283  0.09557  0.76802  1.0000
  O   O50       1.0  0.26894  0.92239  0.81720  1.0000
  O   O51       1.0  0.16677  0.94815  0.67982  1.0000
  O   O52       1.0  0.83909  0.87323  0.86021  1.0000
  O   O53       1.0  0.69717  0.59557  0.73198  1.0000
  O   O54       1.0  0.54441  0.62757  0.63729  1.0000
  O   O55       1.0  0.47610  0.98153  0.75054  1.0000
  O   O56       1.0  0.38976  0.88600  0.66068  1.0000
  C   C106      1.0  0.18100  0.92862  0.75870  1.0000
  C   C107      1.0  0.09850  0.90380  0.87090  1.0000
  H   H54       1.0  0.16260  0.90880  0.91450  1.0000
  C   C108      1.0  0.01440  0.89020  0.89500  1.0000
  H   H55       1.0  0.02140  0.88720  0.95420  1.0000
  C   C109      1.0  0.92000  0.88130  0.83050  1.0000
  C   C110      1.0  0.90930  0.88520  0.74260  1.0000
  H   H56       1.0  0.84540  0.87760  0.69930  1.0000
  C   C111      1.0  0.99360  0.90030  0.71910  1.0000
  H   H57       1.0  0.98630  0.90410  0.65980  1.0000
  C   C112      1.0  0.09000  0.91010  0.78360  1.0000
  C   C113      1.0  0.74540  0.84320  0.80370  1.0000
  C   C114      1.0  0.73700  0.76310  0.77790  1.0000
  H   H58       1.0  0.79440  0.72990  0.79450  1.0000
  C   C115      1.0  0.64180  0.73310  0.72710  1.0000
  C   C116      1.0  0.55710  0.78300  0.70540  1.0000
  H   H59       1.0  0.49350  0.76320  0.67050  1.0000
  C   C117      1.0  0.56570  0.86250  0.73500  1.0000
  C   C118      1.0  0.66130  0.89310  0.78400  1.0000
  H   H60       1.0  0.66850  0.94640  0.80310  1.0000
  C   C119      1.0  0.62800  0.64640  0.69800  1.0000
  C   C120      1.0  0.47100  0.91280  0.71490  1.0000
  Cd  Cd1       1.0  0.29152  0.49907  0.14202  1.0000
  Cd  Cd2       1.0  0.41891  0.50416  0.37350  1.0000
  Cd  Cd3       1.0  0.29152  0.00093  0.64202  1.0000
  Cd  Cd4       1.0  0.41891  0.99584  0.87350  1.0000
  Cd  Cd5       1.0  0.70848  0.50093  0.85798  1.0000
  Cd  Cd6       1.0  0.58109  0.49584  0.62650  1.0000
  Cd  Cd7       1.0  0.70848  0.99907  0.35798  1.0000
  Cd  Cd8       1.0  0.58109  0.00416  0.12650  1.0000
