data_image0
_chemical_formula_structural       O4C2O4C2O4C2O4C4O6C2O2C2O4C2O8C2O2C2O6C2O4C4O8C2O4C2O4C2O4C2O4C3O4CO2C2O2C2O4C2O8C4O8C2O4C4O6C2O5C2O5C2O4C2O4C2O3C2O5C2O4C4O4Cr7Mn2CrMn4Cr4
_chemical_formula_sum              "O144 C72 Cr12 Mn6"
_cell_length_a       19.411
_cell_length_b       19.411
_cell_length_c       16.0339
_cell_angle_alpha    90
_cell_angle_beta     90
_cell_angle_gamma    120

_space_group_name_H-M_alt    "P 1"
_space_group_IT_number       1

loop_
  _space_group_symop_operation_xyz
  'x, y, z'

loop_
  _atom_site_type_symbol
  _atom_site_label
  _atom_site_symmetry_multiplicity
  _atom_site_fract_x
  _atom_site_fract_y
  _atom_site_fract_z
  _atom_site_occupancy
  O   O1        1.0  0.62704  0.76978  0.07200  1.0000
  O   O2        1.0  0.55230  0.72770  0.21630  1.0000
  O   O3        1.0  0.55640  0.64511  0.02360  1.0000
  O   O4        1.0  0.48470  0.59972  0.17710  1.0000
  C   C1        1.0  0.57580  0.69660  0.07870  1.0000
  C   C2        1.0  0.53300  0.67090  0.16440  1.0000
  O   O5        1.0  0.63430  0.88600  0.27700  1.0000
  O   O6        1.0  0.56460  0.86318  0.13050  1.0000
  O   O7        1.0  0.58330  0.96210  0.31737  1.0000
  O   O8        1.0  0.51090  0.93735  0.16477  1.0000
  C   C3        1.0  0.59180  0.92080  0.26617  1.0000
  C   C4        1.0  0.55230  0.90680  0.18107  1.0000
  O   O9        1.0  0.74830  0.63430  0.11033  1.0000
  O   O10       1.0  0.70142  0.56460  0.96383  1.0000
  O   O11       1.0  0.62120  0.58330  0.15070  1.0000
  O   O12       1.0  0.57355  0.51090  0.99810  1.0000
  C   C5        1.0  0.67100  0.59180  0.09950  1.0000
  C   C6        1.0  0.64550  0.55230  0.01440  1.0000
  O   O13       1.0  0.72090  0.80840  0.21910  1.0000
  O   O14       1.0  0.73350  0.92890  0.13480  1.0000
  O   O15       1.0  0.85100  0.85510  0.21520  1.0000
  O   O16       1.0  0.86560  0.99690  0.15340  1.0000
  C   C7        1.0  0.79290  0.86080  0.20180  1.0000
  C   C8        1.0  0.80010  0.93660  0.15790  1.0000
  C   C9        1.0  0.30340  0.87920  0.74537  1.0000
  C   C10       1.0  0.32910  0.86210  0.83107  1.0000
  O   O17       1.0  0.23022  0.85726  0.73867  1.0000
  O   O18       1.0  0.27230  0.82460  0.88297  1.0000
  O   O19       1.0  0.35489  0.91129  0.69027  1.0000
  O   O20       1.0  0.40028  0.88498  0.84377  1.0000
  O   O21       1.0  0.03790  0.62120  0.98403  1.0000
  O   O22       1.0  0.06265  0.57355  0.83143  1.0000
  C   C11       1.0  0.07920  0.67100  0.93283  1.0000
  C   C12       1.0  0.09320  0.64550  0.84773  1.0000
  O   O23       1.0  0.11400  0.74830  0.94367  1.0000
  O   O24       1.0  0.13682  0.70142  0.79717  1.0000
  C   C13       1.0  0.40820  0.07920  0.76617  1.0000
  C   C14       1.0  0.44770  0.09320  0.68107  1.0000
  O   O25       1.0  0.41670  0.03790  0.81737  1.0000
  O   O26       1.0  0.48910  0.06265  0.66477  1.0000
  O   O27       1.0  0.36570  0.11400  0.77700  1.0000
  O   O28       1.0  0.43540  0.13682  0.63050  1.0000
  C   C15       1.0  0.13920  0.93210  0.86847  1.0000
  C   C16       1.0  0.06340  0.86350  0.82457  1.0000
  O   O29       1.0  0.19160  0.91250  0.88577  1.0000
  O   O30       1.0  0.07110  0.80460  0.80147  1.0000
  O   O31       1.0  0.14490  0.99590  0.88187  1.0000
  O   O32       1.0  0.00310  0.86870  0.82007  1.0000
  O   O33       1.0  0.14274  0.37296  0.40533  1.0000
  O   O34       1.0  0.17540  0.44770  0.54963  1.0000
  O   O35       1.0  0.08871  0.44360  0.35693  1.0000
  O   O36       1.0  0.11502  0.51530  0.51043  1.0000
  C   C17       1.0  0.12080  0.42420  0.41203  1.0000
  C   C18       1.0  0.13790  0.46700  0.49773  1.0000
  O   O37       1.0  0.37880  0.41670  0.65070  1.0000
  O   O38       1.0  0.42645  0.48910  0.49810  1.0000
  C   C19       1.0  0.32900  0.40820  0.59950  1.0000
  C   C20       1.0  0.35450  0.44770  0.51440  1.0000
  O   O39       1.0  0.25170  0.36570  0.61033  1.0000
  O   O40       1.0  0.29858  0.43540  0.46383  1.0000
  O   O41       1.0  0.96210  0.37880  0.48403  1.0000
  O   O42       1.0  0.93735  0.42645  0.33143  1.0000
  O   O43       1.0  0.88600  0.25170  0.44367  1.0000
  O   O44       1.0  0.86318  0.29858  0.29717  1.0000
  C   C21       1.0  0.92080  0.32900  0.43283  1.0000
  C   C22       1.0  0.90680  0.35450  0.34773  1.0000
  O   O45       1.0  0.08750  0.27910  0.55243  1.0000
  O   O46       1.0  0.19540  0.26650  0.46813  1.0000
  O   O47       1.0  0.00410  0.14900  0.54853  1.0000
  O   O48       1.0  0.13130  0.13440  0.48673  1.0000
  C   C23       1.0  0.06790  0.20710  0.53513  1.0000
  C   C24       1.0  0.13650  0.19990  0.49123  1.0000
  C   C25       1.0  0.42420  0.30340  0.57870  1.0000
  C   C26       1.0  0.46700  0.32910  0.66440  1.0000
  O   O49       1.0  0.37296  0.23022  0.57200  1.0000
  O   O50       1.0  0.44770  0.27230  0.71630  1.0000
  O   O51       1.0  0.44360  0.35489  0.52360  1.0000
  O   O52       1.0  0.51530  0.40028  0.67710  1.0000
  O   O53       1.0  0.27910  0.19160  0.71910  1.0000
  O   O54       1.0  0.26650  0.07110  0.63480  1.0000
  O   O55       1.0  0.14900  0.14490  0.71520  1.0000
  O   O56       1.0  0.13440  0.00310  0.65340  1.0000
  C   C27       1.0  0.20710  0.13920  0.70180  1.0000
  C   C28       1.0  0.19990  0.06340  0.65790  1.0000
  O   O57       1.0  0.76978  0.14274  0.23867  1.0000
  O   O58       1.0  0.72770  0.17540  0.38297  1.0000
  O   O59       1.0  0.64511  0.08871  0.19027  1.0000
  O   O60       1.0  0.59972  0.11502  0.34377  1.0000
  C   C29       1.0  0.69660  0.12080  0.24537  1.0000
  C   C30       1.0  0.67090  0.13790  0.33107  1.0000
  O   O61       1.0  0.80840  0.08750  0.38577  1.0000
  O   O62       1.0  0.92890  0.19540  0.30147  1.0000
  O   O63       1.0  0.85510  0.00410  0.38187  1.0000
  O   O64       1.0  0.99690  0.13130  0.32007  1.0000
  C   C31       1.0  0.86080  0.06790  0.36847  1.0000
  C   C32       1.0  0.93660  0.13650  0.32457  1.0000
  O   O65       1.0  0.85726  0.62704  0.90533  1.0000
  O   O66       1.0  0.82460  0.55230  0.04963  1.0000
  O   O67       1.0  0.91129  0.55640  0.85693  1.0000
  O   O68       1.0  0.88498  0.48470  0.01043  1.0000
  C   C33       1.0  0.87920  0.57580  0.91203  1.0000
  C   C34       1.0  0.86210  0.53300  0.99773  1.0000
  O   O69       1.0  0.91250  0.72090  0.05243  1.0000
  O   O70       1.0  0.80460  0.73350  0.96813  1.0000
  O   O71       1.0  0.99590  0.85100  0.04853  1.0000
  O   O72       1.0  0.86870  0.86560  0.98673  1.0000
  C   C35       1.0  0.93210  0.79290  0.03513  1.0000
  C   C36       1.0  0.86350  0.80010  0.99123  1.0000
  C   C37       1.0  0.67090  0.53300  0.50227  1.0000
  O   O73       1.0  0.76978  0.62704  0.59467  1.0000
  O   O74       1.0  0.72770  0.55230  0.45037  1.0000
  O   O75       1.0  0.64511  0.55640  0.64307  1.0000
  O   O76       1.0  0.59972  0.48470  0.48957  1.0000
  C   C38       1.0  0.69660  0.57580  0.58797  1.0000
  O   O77       1.0  0.96210  0.58330  0.34930  1.0000
  O   O78       1.0  0.93735  0.51090  0.50190  1.0000
  C   C39       1.0  0.92080  0.59180  0.40050  1.0000
  C   C40       1.0  0.90680  0.55230  0.48560  1.0000
  O   O79       1.0  0.88600  0.63430  0.38967  1.0000
  O   O80       1.0  0.86318  0.56460  0.53617  1.0000
  C   C41       1.0  0.59180  0.67100  0.56717  1.0000
  C   C42       1.0  0.55230  0.64550  0.65227  1.0000
  O   O81       1.0  0.63430  0.74830  0.55633  1.0000
  O   O82       1.0  0.56460  0.70142  0.70283  1.0000
  O   O83       1.0  0.58330  0.62120  0.51597  1.0000
  O   O84       1.0  0.51090  0.57355  0.66857  1.0000
  C   C43       1.0  0.86080  0.79290  0.46487  1.0000
  C   C44       1.0  0.93660  0.80010  0.50877  1.0000
  O   O85       1.0  0.80840  0.72090  0.44757  1.0000
  O   O86       1.0  0.92890  0.73350  0.53187  1.0000
  O   O87       1.0  0.85510  0.85100  0.45147  1.0000
  O   O88       1.0  0.99690  0.86560  0.51327  1.0000
  O   O89       1.0  0.85726  0.23022  0.92800  1.0000
  O   O90       1.0  0.82460  0.27230  0.78370  1.0000
  O   O91       1.0  0.91129  0.35489  0.97640  1.0000
  O   O92       1.0  0.88498  0.40028  0.82290  1.0000
  C   C45       1.0  0.87920  0.30340  0.92130  1.0000
  C   C46       1.0  0.86210  0.32910  0.83560  1.0000
  C   C47       1.0  0.67100  0.07920  0.73383  1.0000
  C   C48       1.0  0.64550  0.09320  0.81893  1.0000
  O   O93       1.0  0.74830  0.11400  0.72300  1.0000
  O   O94       1.0  0.70142  0.13682  0.86950  1.0000
  O   O95       1.0  0.62120  0.03790  0.68263  1.0000
  O   O96       1.0  0.57355  0.06265  0.83523  1.0000
  O   O97       1.0  0.03790  0.41670  0.84930  1.0000
  O   O98       1.0  0.06265  0.48910  0.00190  1.0000
  O   O99       1.0  0.11400  0.36570  0.88967  1.0000
  O   O100      1.0  0.13682  0.43540  0.03617  1.0000
  C   C49       1.0  0.07920  0.40820  0.90050  1.0000
  C   C50       1.0  0.09320  0.44770  0.98560  1.0000
  O   O101      1.0  0.91250  0.19160  0.78090  1.0000
  O   O102      1.0  0.80460  0.07110  0.86520  1.0000
  O   O103      1.0  0.99590  0.14490  0.78480  1.0000
  O   O104      1.0  0.86870  0.00310  0.84660  1.0000
  C   C51       1.0  0.93210  0.13920  0.79820  1.0000
  C   C52       1.0  0.86350  0.06340  0.84210  1.0000
  C   C53       1.0  0.42420  0.12080  0.25463  1.0000
  C   C54       1.0  0.46700  0.13790  0.16893  1.0000
  O   O105      1.0  0.37296  0.14274  0.26133  1.0000
  O   O106      1.0  0.44770  0.17540  0.11703  1.0000
  O   O107      1.0  0.44360  0.08871  0.30973  1.0000
  O   O108      1.0  0.51530  0.11502  0.15623  1.0000
  O   O109      1.0  0.41670  0.37880  0.01597  1.0000
  O   O110      1.0  0.48910  0.42645  0.16857  1.0000
  C   C55       1.0  0.40820  0.32900  0.06717  1.0000
  C   C56       1.0  0.44770  0.35450  0.15227  1.0000
  O   O111      1.0  0.36570  0.25170  0.05633  1.0000
  O   O112      1.0  0.43540  0.29858  0.20283  1.0000
  O   O113      1.0  0.42645  0.93735  0.33523  1.0000
  O   O114      1.0  0.25170  0.88600  0.22300  1.0000
  O   O115      1.0  0.29858  0.86318  0.36950  1.0000
  C   C57       1.0  0.32900  0.92080  0.23383  1.0000
  C   C58       1.0  0.35450  0.90680  0.31893  1.0000
  O   O116      1.0  0.37880  0.96210  0.18263  1.0000
  O   O117      1.0  0.27910  0.08750  0.11423  1.0000
  O   O118      1.0  0.26650  0.19540  0.19853  1.0000
  O   O119      1.0  0.14900  0.00410  0.11813  1.0000
  O   O120      1.0  0.13440  0.13130  0.17993  1.0000
  C   C59       1.0  0.20710  0.06790  0.13153  1.0000
  C   C60       1.0  0.19990  0.13650  0.17543  1.0000
  O   O121      1.0  0.23022  0.37296  0.09467  1.0000
  O   O122      1.0  0.27230  0.44770  0.95037  1.0000
  O   O123      1.0  0.35489  0.44360  0.14307  1.0000
  O   O124      1.0  0.40028  0.51530  0.98957  1.0000
  C   C61       1.0  0.30340  0.42420  0.08797  1.0000
  C   C62       1.0  0.32910  0.46700  0.00227  1.0000
  O   O125      1.0  0.19160  0.27910  0.94757  1.0000
  O   O126      1.0  0.07110  0.26650  0.03187  1.0000
  O   O127      1.0  0.14490  0.14900  0.95147  1.0000
  O   O128      1.0  0.00310  0.13440  0.01327  1.0000
  C   C63       1.0  0.13920  0.20710  0.96487  1.0000
  C   C64       1.0  0.06340  0.19990  0.00877  1.0000
  O   O129      1.0  0.17540  0.72770  0.28370  1.0000
  O   O130      1.0  0.08871  0.64511  0.47640  1.0000
  O   O131      1.0  0.11502  0.59972  0.32290  1.0000
  C   C65       1.0  0.12080  0.69660  0.42130  1.0000
  C   C66       1.0  0.13790  0.67090  0.33560  1.0000
  O   O132      1.0  0.14274  0.76978  0.42800  1.0000
  O   O133      1.0  0.08750  0.80840  0.28090  1.0000
  O   O134      1.0  0.19540  0.92890  0.36520  1.0000
  O   O135      1.0  0.00410  0.85510  0.28480  1.0000
  O   O136      1.0  0.13130  0.99690  0.34660  1.0000
  C   C67       1.0  0.06790  0.86080  0.29820  1.0000
  C   C68       1.0  0.13650  0.93660  0.34210  1.0000
  O   O137      1.0  0.62704  0.85726  0.76133  1.0000
  O   O138      1.0  0.55230  0.82460  0.61703  1.0000
  O   O139      1.0  0.55640  0.91129  0.80973  1.0000
  O   O140      1.0  0.48470  0.88498  0.65623  1.0000
  C   C69       1.0  0.57580  0.87920  0.75463  1.0000
  C   C70       1.0  0.53300  0.86210  0.66893  1.0000
  C   C71       1.0  0.79290  0.93210  0.63153  1.0000
  C   C72       1.0  0.80010  0.86350  0.67543  1.0000
  O   O141      1.0  0.72090  0.91250  0.61423  1.0000
  O   O142      1.0  0.73350  0.80460  0.69853  1.0000
  O   O143      1.0  0.85100  0.99590  0.61813  1.0000
  O   O144      1.0  0.86560  0.86870  0.67993  1.0000
  Cr  Cr1       1.0  0.64000  0.83107  0.17485  1.0000
  Cr  Cr2       1.0  0.80893  0.16893  0.82515  1.0000
  Cr  Cr3       1.0  0.83107  0.19107  0.34152  1.0000
  Cr  Cr4       1.0  0.64000  0.80893  0.65848  1.0000
  Cr  Cr5       1.0  0.16893  0.80893  0.84152  1.0000
  Cr  Cr6       1.0  0.36000  0.19107  0.15848  1.0000
  Cr  Cr7       1.0  0.80893  0.64000  0.00818  1.0000
  Mn  Mn1       1.0  0.48521  0.51479  0.08333  1.0000
  Mn  Mn2       1.0  0.48521  0.97042  0.75000  1.0000
  Cr  Cr8       1.0  0.19107  0.36000  0.50818  1.0000
  Mn  Mn3       1.0  0.02958  0.51479  0.41667  1.0000
  Mn  Mn4       1.0  0.51479  0.48521  0.58333  1.0000
  Mn  Mn5       1.0  0.51479  0.02958  0.25000  1.0000
  Mn  Mn6       1.0  0.97042  0.48521  0.91667  1.0000
  Cr  Cr9       1.0  0.16893  0.36000  0.99182  1.0000
  Cr  Cr10      1.0  0.83107  0.64000  0.49182  1.0000
  Cr  Cr11      1.0  0.36000  0.16893  0.67485  1.0000
  Cr  Cr12      1.0  0.19107  0.83107  0.32515  1.0000
