data_image0
_chemical_formula_structural       OPOHOPOHO5C3HC2HC2PHOPOHOPOHO5C3HC2HC2PHCPHOPOHOPOHO5C3HC2HCO5C3HC2HC2PHOPOHOPOHCd8OPOHOPOHO5C3HC2HC2PHOPOHOPOHO5C3HC2HC2PHCPHOPOHOPOHO5C3HC2HCO5C3HC2HC2PHOPOHOPOHCd8
_chemical_formula_sum              "O72 P24 H40 C56 Cd16"
_cell_length_a       10.4801
_cell_length_b       17.4762
_cell_length_c       14.0784
_cell_angle_alpha    90
_cell_angle_beta     90
_cell_angle_gamma    90

_space_group_name_H-M_alt    "P 1"
_space_group_IT_number       1

loop_
  _space_group_symop_operation_xyz
  'x, y, z'

loop_
  _atom_site_type_symbol
  _atom_site_label
  _atom_site_symmetry_multiplicity
  _atom_site_fract_x
  _atom_site_fract_y
  _atom_site_fract_z
  _atom_site_occupancy
  O   O1        1.0  0.15800  0.50020  0.46260  1.0000
  P   P1        1.0  0.62190  0.34660  0.41815  1.0000
  O   O2        1.0  0.63880  0.34120  0.02200  1.0000
  H   H1        1.0  0.65860  0.29730  0.03635  1.0000
  O   O3        1.0  0.15800  0.50020  0.28740  1.0000
  P   P2        1.0  0.62190  0.34660  0.33185  1.0000
  O   O4        1.0  0.63880  0.34120  0.22800  1.0000
  H   H2        1.0  0.65860  0.29730  0.21365  1.0000
  O   O5        1.0  0.66080  0.42080  0.37500  1.0000
  O   O6        1.0  0.99150  0.41810  0.37500  1.0000
  O   O7        1.0  0.33210  0.10040  0.37500  1.0000
  O   O8        1.0  0.13160  0.13420  0.37500  1.0000
  O   O9        1.0  0.69890  0.27560  0.37500  1.0000
  C   C1        1.0  0.45720  0.32730  0.37500  1.0000
  C   C2        1.0  0.41270  0.25190  0.37500  1.0000
  C   C3        1.0  0.36580  0.38620  0.37500  1.0000
  H   H3        1.0  0.47170  0.21220  0.37500  1.0000
  C   C4        1.0  0.28670  0.23490  0.37500  1.0000
  C   C5        1.0  0.23750  0.36890  0.37500  1.0000
  H   H4        1.0  0.39200  0.43700  0.37500  1.0000
  C   C6        1.0  0.19700  0.29330  0.37500  1.0000
  C   C7        1.0  0.24780  0.15150  0.37500  1.0000
  P   P3        1.0  0.12870  0.45007  0.37500  1.0000
  H   H5        1.0  0.11030  0.28190  0.37500  1.0000
  O   O10       1.0  0.84200  0.49980  0.21260  1.0000
  P   P4        1.0  0.37810  0.65340  0.16815  1.0000
  O   O11       1.0  0.36120  0.65880  0.27200  1.0000
  H   H6        1.0  0.34140  0.70270  0.28635  1.0000
  O   O12       1.0  0.84200  0.49980  0.03740  1.0000
  P   P5        1.0  0.37810  0.65340  0.08185  1.0000
  O   O13       1.0  0.36120  0.65880  0.47800  1.0000
  H   H7        1.0  0.34140  0.70270  0.46365  1.0000
  O   O14       1.0  0.33920  0.57920  0.12500  1.0000
  O   O15       1.0  0.00850  0.58190  0.12500  1.0000
  O   O16       1.0  0.66790  0.89960  0.12500  1.0000
  O   O17       1.0  0.86840  0.86580  0.12500  1.0000
  O   O18       1.0  0.30110  0.72440  0.12500  1.0000
  C   C8        1.0  0.54280  0.67270  0.12500  1.0000
  C   C9        1.0  0.58730  0.74810  0.12500  1.0000
  C   C10       1.0  0.63420  0.61380  0.12500  1.0000
  H   H8        1.0  0.52830  0.78780  0.12500  1.0000
  C   C11       1.0  0.71330  0.76510  0.12500  1.0000
  C   C12       1.0  0.76250  0.63110  0.12500  1.0000
  H   H9        1.0  0.60800  0.56300  0.12500  1.0000
  C   C13       1.0  0.80300  0.70670  0.12500  1.0000
  C   C14       1.0  0.75220  0.84850  0.12500  1.0000
  P   P6        1.0  0.87130  0.54993  0.12500  1.0000
  H   H10       1.0  0.88970  0.71810  0.12500  1.0000
  C   C15       1.0  0.75220  0.65150  0.37500  1.0000
  P   P7        1.0  0.87130  0.95007  0.37500  1.0000
  H   H11       1.0  0.88970  0.78190  0.37500  1.0000
  O   O19       1.0  0.84200  0.00020  0.28740  1.0000
  P   P8        1.0  0.37810  0.84660  0.33185  1.0000
  O   O20       1.0  0.36120  0.84120  0.22800  1.0000
  H   H12       1.0  0.34140  0.79730  0.21365  1.0000
  O   O21       1.0  0.84200  0.00020  0.46260  1.0000
  P   P9        1.0  0.37810  0.84660  0.41815  1.0000
  O   O22       1.0  0.36120  0.84120  0.02200  1.0000
  H   H13       1.0  0.34140  0.79730  0.03635  1.0000
  O   O23       1.0  0.33920  0.92080  0.37500  1.0000
  O   O24       1.0  0.00850  0.91810  0.37500  1.0000
  O   O25       1.0  0.66790  0.60040  0.37500  1.0000
  O   O26       1.0  0.86840  0.63420  0.37500  1.0000
  O   O27       1.0  0.30110  0.77560  0.37500  1.0000
  C   C16       1.0  0.54280  0.82730  0.37500  1.0000
  C   C17       1.0  0.58730  0.75190  0.37500  1.0000
  C   C18       1.0  0.63420  0.88620  0.37500  1.0000
  H   H14       1.0  0.52830  0.71220  0.37500  1.0000
  C   C19       1.0  0.71330  0.73490  0.37500  1.0000
  C   C20       1.0  0.76250  0.86890  0.37500  1.0000
  H   H15       1.0  0.60800  0.93700  0.37500  1.0000
  C   C21       1.0  0.80300  0.79330  0.37500  1.0000
  O   O28       1.0  0.66080  0.07920  0.12500  1.0000
  O   O29       1.0  0.99150  0.08190  0.12500  1.0000
  O   O30       1.0  0.33210  0.39960  0.12500  1.0000
  O   O31       1.0  0.13160  0.36580  0.12500  1.0000
  O   O32       1.0  0.69890  0.22440  0.12500  1.0000
  C   C22       1.0  0.45720  0.17270  0.12500  1.0000
  C   C23       1.0  0.41270  0.24810  0.12500  1.0000
  C   C24       1.0  0.36580  0.11380  0.12500  1.0000
  H   H16       1.0  0.47170  0.28780  0.12500  1.0000
  C   C25       1.0  0.28670  0.26510  0.12500  1.0000
  C   C26       1.0  0.23750  0.13110  0.12500  1.0000
  H   H17       1.0  0.39200  0.06300  0.12500  1.0000
  C   C27       1.0  0.19700  0.20670  0.12500  1.0000
  C   C28       1.0  0.24780  0.34850  0.12500  1.0000
  P   P10       1.0  0.12870  0.04993  0.12500  1.0000
  H   H18       1.0  0.11030  0.21810  0.12500  1.0000
  O   O33       1.0  0.15800  0.99980  0.03740  1.0000
  P   P11       1.0  0.62190  0.15340  0.08185  1.0000
  O   O34       1.0  0.63880  0.15880  0.47800  1.0000
  H   H19       1.0  0.65860  0.20270  0.46365  1.0000
  O   O35       1.0  0.15800  0.99980  0.21260  1.0000
  P   P12       1.0  0.62190  0.15340  0.16815  1.0000
  O   O36       1.0  0.63880  0.15880  0.27200  1.0000
  H   H20       1.0  0.65860  0.20270  0.28635  1.0000
  Cd  Cd1       1.0  0.17516  0.49704  0.12500  1.0000
  Cd  Cd2       1.0  0.82484  0.99704  0.12500  1.0000
  Cd  Cd3       1.0  0.82484  0.50296  0.37500  1.0000
  Cd  Cd4       1.0  0.17516  0.00296  0.37500  1.0000
  Cd  Cd5       1.0  0.77274  0.39257  0.12500  1.0000
  Cd  Cd6       1.0  0.22726  0.60743  0.37500  1.0000
  Cd  Cd7       1.0  0.22726  0.89257  0.12500  1.0000
  Cd  Cd8       1.0  0.77274  0.10743  0.37500  1.0000
  O   O37       1.0  0.15800  0.50020  0.96260  1.0000
  P   P13       1.0  0.62190  0.34660  0.91815  1.0000
  O   O38       1.0  0.63880  0.34120  0.52200  1.0000
  H   H21       1.0  0.65860  0.29730  0.53635  1.0000
  O   O39       1.0  0.15800  0.50020  0.78740  1.0000
  P   P14       1.0  0.62190  0.34660  0.83185  1.0000
  O   O40       1.0  0.63880  0.34120  0.72800  1.0000
  H   H22       1.0  0.65860  0.29730  0.71365  1.0000
  O   O41       1.0  0.66080  0.42080  0.87500  1.0000
  O   O42       1.0  0.99150  0.41810  0.87500  1.0000
  O   O43       1.0  0.33210  0.10040  0.87500  1.0000
  O   O44       1.0  0.13160  0.13420  0.87500  1.0000
  O   O45       1.0  0.69890  0.27560  0.87500  1.0000
  C   C29       1.0  0.45720  0.32730  0.87500  1.0000
  C   C30       1.0  0.41270  0.25190  0.87500  1.0000
  C   C31       1.0  0.36580  0.38620  0.87500  1.0000
  H   H23       1.0  0.47170  0.21220  0.87500  1.0000
  C   C32       1.0  0.28670  0.23490  0.87500  1.0000
  C   C33       1.0  0.23750  0.36890  0.87500  1.0000
  H   H24       1.0  0.39200  0.43700  0.87500  1.0000
  C   C34       1.0  0.19700  0.29330  0.87500  1.0000
  C   C35       1.0  0.24780  0.15150  0.87500  1.0000
  P   P15       1.0  0.12870  0.45007  0.87500  1.0000
  H   H25       1.0  0.11030  0.28190  0.87500  1.0000
  O   O46       1.0  0.84200  0.49980  0.71260  1.0000
  P   P16       1.0  0.37810  0.65340  0.66815  1.0000
  O   O47       1.0  0.36120  0.65880  0.77200  1.0000
  H   H26       1.0  0.34140  0.70270  0.78635  1.0000
  O   O48       1.0  0.84200  0.49980  0.53740  1.0000
  P   P17       1.0  0.37810  0.65340  0.58185  1.0000
  O   O49       1.0  0.36120  0.65880  0.97800  1.0000
  H   H27       1.0  0.34140  0.70270  0.96365  1.0000
  O   O50       1.0  0.33920  0.57920  0.62500  1.0000
  O   O51       1.0  0.00850  0.58190  0.62500  1.0000
  O   O52       1.0  0.66790  0.89960  0.62500  1.0000
  O   O53       1.0  0.86840  0.86580  0.62500  1.0000
  O   O54       1.0  0.30110  0.72440  0.62500  1.0000
  C   C36       1.0  0.54280  0.67270  0.62500  1.0000
  C   C37       1.0  0.58730  0.74810  0.62500  1.0000
  C   C38       1.0  0.63420  0.61380  0.62500  1.0000
  H   H28       1.0  0.52830  0.78780  0.62500  1.0000
  C   C39       1.0  0.71330  0.76510  0.62500  1.0000
  C   C40       1.0  0.76250  0.63110  0.62500  1.0000
  H   H29       1.0  0.60800  0.56300  0.62500  1.0000
  C   C41       1.0  0.80300  0.70670  0.62500  1.0000
  C   C42       1.0  0.75220  0.84850  0.62500  1.0000
  P   P18       1.0  0.87130  0.54993  0.62500  1.0000
  H   H30       1.0  0.88970  0.71810  0.62500  1.0000
  C   C43       1.0  0.75220  0.65150  0.87500  1.0000
  P   P19       1.0  0.87130  0.95007  0.87500  1.0000
  H   H31       1.0  0.88970  0.78190  0.87500  1.0000
  O   O55       1.0  0.84200  0.00020  0.78740  1.0000
  P   P20       1.0  0.37810  0.84660  0.83185  1.0000
  O   O56       1.0  0.36120  0.84120  0.72800  1.0000
  H   H32       1.0  0.34140  0.79730  0.71365  1.0000
  O   O57       1.0  0.84200  0.00020  0.96260  1.0000
  P   P21       1.0  0.37810  0.84660  0.91815  1.0000
  O   O58       1.0  0.36120  0.84120  0.52200  1.0000
  H   H33       1.0  0.34140  0.79730  0.53635  1.0000
  O   O59       1.0  0.33920  0.92080  0.87500  1.0000
  O   O60       1.0  0.00850  0.91810  0.87500  1.0000
  O   O61       1.0  0.66790  0.60040  0.87500  1.0000
  O   O62       1.0  0.86840  0.63420  0.87500  1.0000
  O   O63       1.0  0.30110  0.77560  0.87500  1.0000
  C   C44       1.0  0.54280  0.82730  0.87500  1.0000
  C   C45       1.0  0.58730  0.75190  0.87500  1.0000
  C   C46       1.0  0.63420  0.88620  0.87500  1.0000
  H   H34       1.0  0.52830  0.71220  0.87500  1.0000
  C   C47       1.0  0.71330  0.73490  0.87500  1.0000
  C   C48       1.0  0.76250  0.86890  0.87500  1.0000
  H   H35       1.0  0.60800  0.93700  0.87500  1.0000
  C   C49       1.0  0.80300  0.79330  0.87500  1.0000
  O   O64       1.0  0.66080  0.07920  0.62500  1.0000
  O   O65       1.0  0.99150  0.08190  0.62500  1.0000
  O   O66       1.0  0.33210  0.39960  0.62500  1.0000
  O   O67       1.0  0.13160  0.36580  0.62500  1.0000
  O   O68       1.0  0.69890  0.22440  0.62500  1.0000
  C   C50       1.0  0.45720  0.17270  0.62500  1.0000
  C   C51       1.0  0.41270  0.24810  0.62500  1.0000
  C   C52       1.0  0.36580  0.11380  0.62500  1.0000
  H   H36       1.0  0.47170  0.28780  0.62500  1.0000
  C   C53       1.0  0.28670  0.26510  0.62500  1.0000
  C   C54       1.0  0.23750  0.13110  0.62500  1.0000
  H   H37       1.0  0.39200  0.06300  0.62500  1.0000
  C   C55       1.0  0.19700  0.20670  0.62500  1.0000
  C   C56       1.0  0.24780  0.34850  0.62500  1.0000
  P   P22       1.0  0.12870  0.04993  0.62500  1.0000
  H   H38       1.0  0.11030  0.21810  0.62500  1.0000
  O   O69       1.0  0.15800  0.99980  0.53740  1.0000
  P   P23       1.0  0.62190  0.15340  0.58185  1.0000
  O   O70       1.0  0.63880  0.15880  0.97800  1.0000
  H   H39       1.0  0.65860  0.20270  0.96365  1.0000
  O   O71       1.0  0.15800  0.99980  0.71260  1.0000
  P   P24       1.0  0.62190  0.15340  0.66815  1.0000
  O   O72       1.0  0.63880  0.15880  0.77200  1.0000
  H   H40       1.0  0.65860  0.20270  0.78635  1.0000
  Cd  Cd9       1.0  0.17516  0.49704  0.62500  1.0000
  Cd  Cd10      1.0  0.82484  0.99704  0.62500  1.0000
  Cd  Cd11      1.0  0.82484  0.50296  0.87500  1.0000
  Cd  Cd12      1.0  0.17516  0.00296  0.87500  1.0000
  Cd  Cd13      1.0  0.77274  0.39257  0.62500  1.0000
  Cd  Cd14      1.0  0.22726  0.60743  0.87500  1.0000
  Cd  Cd15      1.0  0.22726  0.89257  0.62500  1.0000
  Cd  Cd16      1.0  0.77274  0.10743  0.87500  1.0000
