data_image0
_chemical_formula_structural       PO6C3NPO6C3NMn2PO6C3NPO6C3NMn2PO6C3NPO6C3NMn2PO6C3NPO6C3NMn2
_chemical_formula_sum              "P8 O48 C24 N8 Mn8"
_cell_length_a       11.2128
_cell_length_b       12.4389
_cell_length_c       10.742
_cell_angle_alpha    90
_cell_angle_beta     105.756
_cell_angle_gamma    90

_space_group_name_H-M_alt    "P 1"
_space_group_IT_number       1

loop_
  _space_group_symop_operation_xyz
  'x, y, z'

loop_
  _atom_site_type_symbol
  _atom_site_label
  _atom_site_symmetry_multiplicity
  _atom_site_fract_x
  _atom_site_fract_y
  _atom_site_fract_z
  _atom_site_occupancy
  P   P1        1.0  0.03400  0.00456  0.18980  1.0000
  O   O1        1.0  0.14520  0.00410  0.13255  1.0000
  O   O2        1.0  0.05995  0.05530  0.32370  1.0000
  O   O3        1.0  0.41875  0.05900  0.10235  1.0000
  O   O4        1.0  0.00480  0.87717  0.20385  1.0000
  O   O5        1.0  0.31475  0.71510  0.45720  1.0000
  O   O6        1.0  0.24730  0.87960  0.43820  1.0000
  C   C1        1.0  0.40550  0.83240  0.25160  1.0000
  C   C2        1.0  0.44020  0.84900  0.39655  1.0000
  C   C3        1.0  0.32895  0.81270  0.44360  1.0000
  N   N1        1.0  0.04670  0.77810  0.46255  1.0000
  P   P2        1.0  0.46600  0.50456  0.31020  1.0000
  O   O7        1.0  0.35480  0.50410  0.36745  1.0000
  O   O8        1.0  0.44005  0.55530  0.17630  1.0000
  O   O9        1.0  0.08125  0.55900  0.39765  1.0000
  O   O10       1.0  0.49520  0.37717  0.29615  1.0000
  O   O11       1.0  0.18525  0.21510  0.04280  1.0000
  O   O12       1.0  0.25270  0.37960  0.06180  1.0000
  C   C4        1.0  0.09450  0.33240  0.24840  1.0000
  C   C5        1.0  0.05980  0.34900  0.10345  1.0000
  C   C6        1.0  0.17105  0.31270  0.05640  1.0000
  N   N2        1.0  0.45330  0.27810  0.03745  1.0000
  Mn  Mn1       1.0  0.22807  0.05502  0.48380  1.0000
  Mn  Mn2       1.0  0.27192  0.55502  0.01620  1.0000
  P   P3        1.0  0.03400  0.00456  0.68980  1.0000
  O   O13       1.0  0.14520  0.00410  0.63255  1.0000
  O   O14       1.0  0.05995  0.05530  0.82370  1.0000
  O   O15       1.0  0.41875  0.05900  0.60235  1.0000
  O   O16       1.0  0.00480  0.87717  0.70385  1.0000
  O   O17       1.0  0.31475  0.71510  0.95720  1.0000
  O   O18       1.0  0.24730  0.87960  0.93820  1.0000
  C   C7        1.0  0.40550  0.83240  0.75160  1.0000
  C   C8        1.0  0.44020  0.84900  0.89655  1.0000
  C   C9        1.0  0.32895  0.81270  0.94360  1.0000
  N   N3        1.0  0.04670  0.77810  0.96255  1.0000
  P   P4        1.0  0.46600  0.50456  0.81020  1.0000
  O   O19       1.0  0.35480  0.50410  0.86745  1.0000
  O   O20       1.0  0.44005  0.55530  0.67630  1.0000
  O   O21       1.0  0.08125  0.55900  0.89765  1.0000
  O   O22       1.0  0.49520  0.37717  0.79615  1.0000
  O   O23       1.0  0.18525  0.21510  0.54280  1.0000
  O   O24       1.0  0.25270  0.37960  0.56180  1.0000
  C   C10       1.0  0.09450  0.33240  0.74840  1.0000
  C   C11       1.0  0.05980  0.34900  0.60345  1.0000
  C   C12       1.0  0.17105  0.31270  0.55640  1.0000
  N   N4        1.0  0.45330  0.27810  0.53745  1.0000
  Mn  Mn3       1.0  0.22808  0.05502  0.98380  1.0000
  Mn  Mn4       1.0  0.27192  0.55502  0.51620  1.0000
  P   P5        1.0  0.53400  0.00456  0.18980  1.0000
  O   O25       1.0  0.64520  0.00410  0.13255  1.0000
  O   O26       1.0  0.55995  0.05530  0.32370  1.0000
  O   O27       1.0  0.91875  0.05900  0.10235  1.0000
  O   O28       1.0  0.50480  0.87717  0.20385  1.0000
  O   O29       1.0  0.81475  0.71510  0.45720  1.0000
  O   O30       1.0  0.74730  0.87960  0.43820  1.0000
  C   C13       1.0  0.90550  0.83240  0.25160  1.0000
  C   C14       1.0  0.94020  0.84900  0.39655  1.0000
  C   C15       1.0  0.82895  0.81270  0.44360  1.0000
  N   N5        1.0  0.54670  0.77810  0.46255  1.0000
  P   P6        1.0  0.96600  0.50456  0.31020  1.0000
  O   O31       1.0  0.85480  0.50410  0.36745  1.0000
  O   O32       1.0  0.94005  0.55530  0.17630  1.0000
  O   O33       1.0  0.58125  0.55900  0.39765  1.0000
  O   O34       1.0  0.99520  0.37717  0.29615  1.0000
  O   O35       1.0  0.68525  0.21510  0.04280  1.0000
  O   O36       1.0  0.75270  0.37960  0.06180  1.0000
  C   C16       1.0  0.59450  0.33240  0.24840  1.0000
  C   C17       1.0  0.55980  0.34900  0.10345  1.0000
  C   C18       1.0  0.67105  0.31270  0.05640  1.0000
  N   N6        1.0  0.95330  0.27810  0.03745  1.0000
  Mn  Mn5       1.0  0.72808  0.05502  0.48380  1.0000
  Mn  Mn6       1.0  0.77192  0.55502  0.01620  1.0000
  P   P7        1.0  0.53400  0.00456  0.68980  1.0000
  O   O37       1.0  0.64520  0.00410  0.63255  1.0000
  O   O38       1.0  0.55995  0.05530  0.82370  1.0000
  O   O39       1.0  0.91875  0.05900  0.60235  1.0000
  O   O40       1.0  0.50480  0.87717  0.70385  1.0000
  O   O41       1.0  0.81475  0.71510  0.95720  1.0000
  O   O42       1.0  0.74730  0.87960  0.93820  1.0000
  C   C19       1.0  0.90550  0.83240  0.75160  1.0000
  C   C20       1.0  0.94020  0.84900  0.89655  1.0000
  C   C21       1.0  0.82895  0.81270  0.94360  1.0000
  N   N7        1.0  0.54670  0.77810  0.96255  1.0000
  P   P8        1.0  0.96600  0.50456  0.81020  1.0000
  O   O43       1.0  0.85480  0.50410  0.86745  1.0000
  O   O44       1.0  0.94005  0.55530  0.67630  1.0000
  O   O45       1.0  0.58125  0.55900  0.89765  1.0000
  O   O46       1.0  0.99520  0.37717  0.79615  1.0000
  O   O47       1.0  0.68525  0.21510  0.54280  1.0000
  O   O48       1.0  0.75270  0.37960  0.56180  1.0000
  C   C22       1.0  0.59450  0.33240  0.74840  1.0000
  C   C23       1.0  0.55980  0.34900  0.60345  1.0000
  C   C24       1.0  0.67105  0.31270  0.55640  1.0000
  N   N8        1.0  0.95330  0.27810  0.53745  1.0000
  Mn  Mn7       1.0  0.72808  0.05502  0.98380  1.0000
  Mn  Mn8       1.0  0.77192  0.55502  0.51620  1.0000
