data_image0
_chemical_formula_structural       PO6NH3C2HCH3CH2PO6NH3C2PO6NH3C2HCH4C2HCH2PO6NHZn4PO6NH3C2HCH3CH2PO6NH3C2PO6NH3C2HCH4C2HCH2PO6NHZn4PO6NH3C2HCH3CH2PO6NH3C2PO6NH3C2HCH4C2HCH2PO6NHZn4PO6NH3C2HCH3CH2PO6NH3C2PO6NH3C2HCH4C2HCH2PO6NHZn4
_chemical_formula_sum              "P16 O96 N16 H96 C48 Zn16"
_cell_length_a       10.3636
_cell_length_b       15.3818
_cell_length_c       17.7166
_cell_angle_alpha    90
_cell_angle_beta     90
_cell_angle_gamma    90

_space_group_name_H-M_alt    "P 1"
_space_group_IT_number       1

loop_
  _space_group_symop_operation_xyz
  'x, y, z'

loop_
  _atom_site_type_symbol
  _atom_site_label
  _atom_site_symmetry_multiplicity
  _atom_site_fract_x
  _atom_site_fract_y
  _atom_site_fract_z
  _atom_site_occupancy
  P   P1        1.0  0.09285  0.41295  0.27506  1.0000
  O   O1        1.0  0.14485  0.25410  0.56640  1.0000
  O   O2        1.0  0.47185  0.19285  0.51480  1.0000
  O   O3        1.0  0.13030  0.33000  0.32560  1.0000
  O   O4        1.0  0.44915  0.42560  0.27750  1.0000
  O   O5        1.0  0.13790  0.38495  0.19700  1.0000
  O   O6        1.0  0.16350  0.49075  0.30680  1.0000
  N   N1        1.0  0.10225  0.16540  0.38530  1.0000
  H   H1        1.0  0.13855  0.17130  0.34010  1.0000
  H   H2        1.0  0.01685  0.16355  0.38030  1.0000
  H   H3        1.0  0.12965  0.11635  0.40660  1.0000
  C   C1        1.0  0.07925  0.22560  0.51210  1.0000
  C   C2        1.0  0.13825  0.24010  0.43350  1.0000
  H   H4        1.0  0.23240  0.24415  0.43740  1.0000
  C   C3        1.0  0.08410  0.32365  0.40070  1.0000
  H   H5        1.0  0.49050  0.32220  0.40120  1.0000
  H   H6        1.0  0.11265  0.37325  0.43010  1.0000
  H   H7        1.0  0.01760  0.25585  0.93740  1.0000
  C   C4        1.0  0.16590  0.17635  0.90070  1.0000
  H   H8        1.0  0.25950  0.17780  0.90120  1.0000
  H   H9        1.0  0.13735  0.12675  0.93010  1.0000
  P   P2        1.0  0.15715  0.08705  0.77506  1.0000
  O   O7        1.0  0.10515  0.24590  0.06640  1.0000
  O   O8        1.0  0.27815  0.30715  0.01480  1.0000
  O   O9        1.0  0.11970  0.17000  0.82560  1.0000
  O   O10       1.0  0.30085  0.07440  0.77750  1.0000
  O   O11       1.0  0.11210  0.11505  0.69700  1.0000
  O   O12       1.0  0.08650  0.00925  0.80680  1.0000
  N   N2        1.0  0.14775  0.33460  0.88530  1.0000
  H   H10       1.0  0.11145  0.32870  0.84010  1.0000
  H   H11       1.0  0.23315  0.33645  0.88030  1.0000
  H   H12       1.0  0.12035  0.38365  0.90660  1.0000
  C   C5        1.0  0.17075  0.27440  0.01210  1.0000
  C   C6        1.0  0.11175  0.25990  0.93350  1.0000
  P   P3        1.0  0.40715  0.16295  0.22494  1.0000
  O   O13       1.0  0.35515  0.00410  0.93360  1.0000
  O   O14       1.0  0.02815  0.44285  0.98520  1.0000
  O   O15       1.0  0.36970  0.08000  0.17440  1.0000
  O   O16       1.0  0.05085  0.17560  0.22250  1.0000
  O   O17       1.0  0.36210  0.13495  0.30300  1.0000
  O   O18       1.0  0.33650  0.24075  0.19320  1.0000
  N   N3        1.0  0.39775  0.41540  0.11470  1.0000
  H   H13       1.0  0.36145  0.42130  0.15990  1.0000
  H   H14       1.0  0.48315  0.41355  0.11970  1.0000
  H   H15       1.0  0.37035  0.36635  0.09340  1.0000
  C   C7        1.0  0.42075  0.47560  0.98790  1.0000
  C   C8        1.0  0.36175  0.49010  0.06650  1.0000
  H   H16       1.0  0.26760  0.49415  0.06260  1.0000
  C   C9        1.0  0.41590  0.07365  0.09930  1.0000
  H   H17       1.0  0.00950  0.07220  0.09880  1.0000
  H   H18       1.0  0.38735  0.12325  0.06990  1.0000
  H   H19       1.0  0.26685  0.08645  0.61970  1.0000
  H   H20       1.0  0.37965  0.13365  0.59340  1.0000
  C   C10       1.0  0.32925  0.02440  0.48790  1.0000
  C   C11       1.0  0.38825  0.00990  0.56650  1.0000
  H   H21       1.0  0.48240  0.00585  0.56260  1.0000
  C   C12       1.0  0.33410  0.42635  0.59930  1.0000
  H   H22       1.0  0.24050  0.42780  0.59880  1.0000
  H   H23       1.0  0.36265  0.37675  0.56990  1.0000
  P   P4        1.0  0.34285  0.33705  0.72494  1.0000
  O   O19       1.0  0.39485  0.49590  0.43360  1.0000
  O   O20       1.0  0.22185  0.05715  0.48520  1.0000
  O   O21       1.0  0.38030  0.42000  0.67440  1.0000
  O   O22       1.0  0.19915  0.32440  0.72250  1.0000
  O   O23       1.0  0.38790  0.36505  0.80300  1.0000
  O   O24       1.0  0.41350  0.25925  0.69320  1.0000
  N   N4        1.0  0.35225  0.08460  0.61470  1.0000
  H   H24       1.0  0.38855  0.07870  0.65990  1.0000
  Zn  Zn1       1.0  0.34207  0.00989  0.32768  1.0000
  Zn  Zn2       1.0  0.40793  0.49010  0.82768  1.0000
  Zn  Zn3       1.0  0.15793  0.25989  0.17232  1.0000
  Zn  Zn4       1.0  0.09206  0.24010  0.67232  1.0000
  P   P5        1.0  0.09285  0.91295  0.27506  1.0000
  O   O25       1.0  0.14485  0.75410  0.56640  1.0000
  O   O26       1.0  0.47185  0.69285  0.51480  1.0000
  O   O27       1.0  0.13030  0.83000  0.32560  1.0000
  O   O28       1.0  0.44915  0.92560  0.27750  1.0000
  O   O29       1.0  0.13790  0.88495  0.19700  1.0000
  O   O30       1.0  0.16350  0.99075  0.30680  1.0000
  N   N5        1.0  0.10225  0.66540  0.38530  1.0000
  H   H25       1.0  0.13855  0.67130  0.34010  1.0000
  H   H26       1.0  0.01685  0.66355  0.38030  1.0000
  H   H27       1.0  0.12965  0.61635  0.40660  1.0000
  C   C13       1.0  0.07925  0.72560  0.51210  1.0000
  C   C14       1.0  0.13825  0.74010  0.43350  1.0000
  H   H28       1.0  0.23240  0.74415  0.43740  1.0000
  C   C15       1.0  0.08410  0.82365  0.40070  1.0000
  H   H29       1.0  0.49050  0.82220  0.40120  1.0000
  H   H30       1.0  0.11265  0.87325  0.43010  1.0000
  H   H31       1.0  0.01760  0.75585  0.93740  1.0000
  C   C16       1.0  0.16590  0.67635  0.90070  1.0000
  H   H32       1.0  0.25950  0.67780  0.90120  1.0000
  H   H33       1.0  0.13735  0.62675  0.93010  1.0000
  P   P6        1.0  0.15715  0.58705  0.77506  1.0000
  O   O31       1.0  0.10515  0.74590  0.06640  1.0000
  O   O32       1.0  0.27815  0.80715  0.01480  1.0000
  O   O33       1.0  0.11970  0.67000  0.82560  1.0000
  O   O34       1.0  0.30085  0.57440  0.77750  1.0000
  O   O35       1.0  0.11210  0.61505  0.69700  1.0000
  O   O36       1.0  0.08650  0.50925  0.80680  1.0000
  N   N6        1.0  0.14775  0.83460  0.88530  1.0000
  H   H34       1.0  0.11145  0.82870  0.84010  1.0000
  H   H35       1.0  0.23315  0.83645  0.88030  1.0000
  H   H36       1.0  0.12035  0.88365  0.90660  1.0000
  C   C17       1.0  0.17075  0.77440  0.01210  1.0000
  C   C18       1.0  0.11175  0.75990  0.93350  1.0000
  P   P7        1.0  0.40715  0.66295  0.22494  1.0000
  O   O37       1.0  0.35515  0.50410  0.93360  1.0000
  O   O38       1.0  0.02815  0.94285  0.98520  1.0000
  O   O39       1.0  0.36970  0.58000  0.17440  1.0000
  O   O40       1.0  0.05085  0.67560  0.22250  1.0000
  O   O41       1.0  0.36210  0.63495  0.30300  1.0000
  O   O42       1.0  0.33650  0.74075  0.19320  1.0000
  N   N7        1.0  0.39775  0.91540  0.11470  1.0000
  H   H37       1.0  0.36145  0.92130  0.15990  1.0000
  H   H38       1.0  0.48315  0.91355  0.11970  1.0000
  H   H39       1.0  0.37035  0.86635  0.09340  1.0000
  C   C19       1.0  0.42075  0.97560  0.98790  1.0000
  C   C20       1.0  0.36175  0.99010  0.06650  1.0000
  H   H40       1.0  0.26760  0.99415  0.06260  1.0000
  C   C21       1.0  0.41590  0.57365  0.09930  1.0000
  H   H41       1.0  0.00950  0.57220  0.09880  1.0000
  H   H42       1.0  0.38735  0.62325  0.06990  1.0000
  H   H43       1.0  0.26685  0.58645  0.61970  1.0000
  H   H44       1.0  0.37965  0.63365  0.59340  1.0000
  C   C22       1.0  0.32925  0.52440  0.48790  1.0000
  C   C23       1.0  0.38825  0.50990  0.56650  1.0000
  H   H45       1.0  0.48240  0.50585  0.56260  1.0000
  C   C24       1.0  0.33410  0.92635  0.59930  1.0000
  H   H46       1.0  0.24050  0.92780  0.59880  1.0000
  H   H47       1.0  0.36265  0.87675  0.56990  1.0000
  P   P8        1.0  0.34285  0.83705  0.72494  1.0000
  O   O43       1.0  0.39485  0.99590  0.43360  1.0000
  O   O44       1.0  0.22185  0.55715  0.48520  1.0000
  O   O45       1.0  0.38030  0.92000  0.67440  1.0000
  O   O46       1.0  0.19915  0.82440  0.72250  1.0000
  O   O47       1.0  0.38790  0.86505  0.80300  1.0000
  O   O48       1.0  0.41350  0.75925  0.69320  1.0000
  N   N8        1.0  0.35225  0.58460  0.61470  1.0000
  H   H48       1.0  0.38855  0.57870  0.65990  1.0000
  Zn  Zn5       1.0  0.34207  0.50989  0.32768  1.0000
  Zn  Zn6       1.0  0.40793  0.99010  0.82768  1.0000
  Zn  Zn7       1.0  0.15793  0.75989  0.17232  1.0000
  Zn  Zn8       1.0  0.09206  0.74010  0.67232  1.0000
  P   P9        1.0  0.59285  0.41295  0.27506  1.0000
  O   O49       1.0  0.64485  0.25410  0.56640  1.0000
  O   O50       1.0  0.97185  0.19285  0.51480  1.0000
  O   O51       1.0  0.63030  0.33000  0.32560  1.0000
  O   O52       1.0  0.94915  0.42560  0.27750  1.0000
  O   O53       1.0  0.63790  0.38495  0.19700  1.0000
  O   O54       1.0  0.66350  0.49075  0.30680  1.0000
  N   N9        1.0  0.60225  0.16540  0.38530  1.0000
  H   H49       1.0  0.63855  0.17130  0.34010  1.0000
  H   H50       1.0  0.51685  0.16355  0.38030  1.0000
  H   H51       1.0  0.62965  0.11635  0.40660  1.0000
  C   C25       1.0  0.57925  0.22560  0.51210  1.0000
  C   C26       1.0  0.63825  0.24010  0.43350  1.0000
  H   H52       1.0  0.73240  0.24415  0.43740  1.0000
  C   C27       1.0  0.58410  0.32365  0.40070  1.0000
  H   H53       1.0  0.99050  0.32220  0.40120  1.0000
  H   H54       1.0  0.61265  0.37325  0.43010  1.0000
  H   H55       1.0  0.51760  0.25585  0.93740  1.0000
  C   C28       1.0  0.66590  0.17635  0.90070  1.0000
  H   H56       1.0  0.75950  0.17780  0.90120  1.0000
  H   H57       1.0  0.63735  0.12675  0.93010  1.0000
  P   P10       1.0  0.65715  0.08705  0.77506  1.0000
  O   O55       1.0  0.60515  0.24590  0.06640  1.0000
  O   O56       1.0  0.77815  0.30715  0.01480  1.0000
  O   O57       1.0  0.61970  0.17000  0.82560  1.0000
  O   O58       1.0  0.80085  0.07440  0.77750  1.0000
  O   O59       1.0  0.61210  0.11505  0.69700  1.0000
  O   O60       1.0  0.58650  0.00925  0.80680  1.0000
  N   N10       1.0  0.64775  0.33460  0.88530  1.0000
  H   H58       1.0  0.61145  0.32870  0.84010  1.0000
  H   H59       1.0  0.73315  0.33645  0.88030  1.0000
  H   H60       1.0  0.62035  0.38365  0.90660  1.0000
  C   C29       1.0  0.67075  0.27440  0.01210  1.0000
  C   C30       1.0  0.61175  0.25990  0.93350  1.0000
  P   P11       1.0  0.90715  0.16295  0.22494  1.0000
  O   O61       1.0  0.85515  0.00410  0.93360  1.0000
  O   O62       1.0  0.52815  0.44285  0.98520  1.0000
  O   O63       1.0  0.86970  0.08000  0.17440  1.0000
  O   O64       1.0  0.55085  0.17560  0.22250  1.0000
  O   O65       1.0  0.86210  0.13495  0.30300  1.0000
  O   O66       1.0  0.83650  0.24075  0.19320  1.0000
  N   N11       1.0  0.89775  0.41540  0.11470  1.0000
  H   H61       1.0  0.86145  0.42130  0.15990  1.0000
  H   H62       1.0  0.98315  0.41355  0.11970  1.0000
  H   H63       1.0  0.87035  0.36635  0.09340  1.0000
  C   C31       1.0  0.92075  0.47560  0.98790  1.0000
  C   C32       1.0  0.86175  0.49010  0.06650  1.0000
  H   H64       1.0  0.76760  0.49415  0.06260  1.0000
  C   C33       1.0  0.91590  0.07365  0.09930  1.0000
  H   H65       1.0  0.50950  0.07220  0.09880  1.0000
  H   H66       1.0  0.88735  0.12325  0.06990  1.0000
  H   H67       1.0  0.76685  0.08645  0.61970  1.0000
  H   H68       1.0  0.87965  0.13365  0.59340  1.0000
  C   C34       1.0  0.82925  0.02440  0.48790  1.0000
  C   C35       1.0  0.88825  0.00990  0.56650  1.0000
  H   H69       1.0  0.98240  0.00585  0.56260  1.0000
  C   C36       1.0  0.83410  0.42635  0.59930  1.0000
  H   H70       1.0  0.74050  0.42780  0.59880  1.0000
  H   H71       1.0  0.86265  0.37675  0.56990  1.0000
  P   P12       1.0  0.84285  0.33705  0.72494  1.0000
  O   O67       1.0  0.89485  0.49590  0.43360  1.0000
  O   O68       1.0  0.72185  0.05715  0.48520  1.0000
  O   O69       1.0  0.88030  0.42000  0.67440  1.0000
  O   O70       1.0  0.69915  0.32440  0.72250  1.0000
  O   O71       1.0  0.88790  0.36505  0.80300  1.0000
  O   O72       1.0  0.91350  0.25925  0.69320  1.0000
  N   N12       1.0  0.85225  0.08460  0.61470  1.0000
  H   H72       1.0  0.88855  0.07870  0.65990  1.0000
  Zn  Zn9       1.0  0.84207  0.00989  0.32768  1.0000
  Zn  Zn10      1.0  0.90794  0.49010  0.82768  1.0000
  Zn  Zn11      1.0  0.65793  0.25989  0.17232  1.0000
  Zn  Zn12      1.0  0.59206  0.24010  0.67232  1.0000
  P   P13       1.0  0.59285  0.91295  0.27506  1.0000
  O   O73       1.0  0.64485  0.75410  0.56640  1.0000
  O   O74       1.0  0.97185  0.69285  0.51480  1.0000
  O   O75       1.0  0.63030  0.83000  0.32560  1.0000
  O   O76       1.0  0.94915  0.92560  0.27750  1.0000
  O   O77       1.0  0.63790  0.88495  0.19700  1.0000
  O   O78       1.0  0.66350  0.99075  0.30680  1.0000
  N   N13       1.0  0.60225  0.66540  0.38530  1.0000
  H   H73       1.0  0.63855  0.67130  0.34010  1.0000
  H   H74       1.0  0.51685  0.66355  0.38030  1.0000
  H   H75       1.0  0.62965  0.61635  0.40660  1.0000
  C   C37       1.0  0.57925  0.72560  0.51210  1.0000
  C   C38       1.0  0.63825  0.74010  0.43350  1.0000
  H   H76       1.0  0.73240  0.74415  0.43740  1.0000
  C   C39       1.0  0.58410  0.82365  0.40070  1.0000
  H   H77       1.0  0.99050  0.82220  0.40120  1.0000
  H   H78       1.0  0.61265  0.87325  0.43010  1.0000
  H   H79       1.0  0.51760  0.75585  0.93740  1.0000
  C   C40       1.0  0.66590  0.67635  0.90070  1.0000
  H   H80       1.0  0.75950  0.67780  0.90120  1.0000
  H   H81       1.0  0.63735  0.62675  0.93010  1.0000
  P   P14       1.0  0.65715  0.58705  0.77506  1.0000
  O   O79       1.0  0.60515  0.74590  0.06640  1.0000
  O   O80       1.0  0.77815  0.80715  0.01480  1.0000
  O   O81       1.0  0.61970  0.67000  0.82560  1.0000
  O   O82       1.0  0.80085  0.57440  0.77750  1.0000
  O   O83       1.0  0.61210  0.61505  0.69700  1.0000
  O   O84       1.0  0.58650  0.50925  0.80680  1.0000
  N   N14       1.0  0.64775  0.83460  0.88530  1.0000
  H   H82       1.0  0.61145  0.82870  0.84010  1.0000
  H   H83       1.0  0.73315  0.83645  0.88030  1.0000
  H   H84       1.0  0.62035  0.88365  0.90660  1.0000
  C   C41       1.0  0.67075  0.77440  0.01210  1.0000
  C   C42       1.0  0.61175  0.75990  0.93350  1.0000
  P   P15       1.0  0.90715  0.66295  0.22494  1.0000
  O   O85       1.0  0.85515  0.50410  0.93360  1.0000
  O   O86       1.0  0.52815  0.94285  0.98520  1.0000
  O   O87       1.0  0.86970  0.58000  0.17440  1.0000
  O   O88       1.0  0.55085  0.67560  0.22250  1.0000
  O   O89       1.0  0.86210  0.63495  0.30300  1.0000
  O   O90       1.0  0.83650  0.74075  0.19320  1.0000
  N   N15       1.0  0.89775  0.91540  0.11470  1.0000
  H   H85       1.0  0.86145  0.92130  0.15990  1.0000
  H   H86       1.0  0.98315  0.91355  0.11970  1.0000
  H   H87       1.0  0.87035  0.86635  0.09340  1.0000
  C   C43       1.0  0.92075  0.97560  0.98790  1.0000
  C   C44       1.0  0.86175  0.99010  0.06650  1.0000
  H   H88       1.0  0.76760  0.99415  0.06260  1.0000
  C   C45       1.0  0.91590  0.57365  0.09930  1.0000
  H   H89       1.0  0.50950  0.57220  0.09880  1.0000
  H   H90       1.0  0.88735  0.62325  0.06990  1.0000
  H   H91       1.0  0.76685  0.58645  0.61970  1.0000
  H   H92       1.0  0.87965  0.63365  0.59340  1.0000
  C   C46       1.0  0.82925  0.52440  0.48790  1.0000
  C   C47       1.0  0.88825  0.50990  0.56650  1.0000
  H   H93       1.0  0.98240  0.50585  0.56260  1.0000
  C   C48       1.0  0.83410  0.92635  0.59930  1.0000
  H   H94       1.0  0.74050  0.92780  0.59880  1.0000
  H   H95       1.0  0.86265  0.87675  0.56990  1.0000
  P   P16       1.0  0.84285  0.83705  0.72494  1.0000
  O   O91       1.0  0.89485  0.99590  0.43360  1.0000
  O   O92       1.0  0.72185  0.55715  0.48520  1.0000
  O   O93       1.0  0.88030  0.92000  0.67440  1.0000
  O   O94       1.0  0.69915  0.82440  0.72250  1.0000
  O   O95       1.0  0.88790  0.86505  0.80300  1.0000
  O   O96       1.0  0.91350  0.75925  0.69320  1.0000
  N   N16       1.0  0.85225  0.58460  0.61470  1.0000
  H   H96       1.0  0.88855  0.57870  0.65990  1.0000
  Zn  Zn13      1.0  0.84207  0.50989  0.32768  1.0000
  Zn  Zn14      1.0  0.90794  0.99010  0.82768  1.0000
  Zn  Zn15      1.0  0.65793  0.75989  0.17232  1.0000
  Zn  Zn16      1.0  0.59206  0.74010  0.67232  1.0000
