data_image0
_chemical_formula_structural       PO6NH3CH2CHCO5NH3CH2CHCPOCo2PO6NH3CH2CHCO5NH3CH2CHCPOCo2PO6NH3CH2CHCO5NH3CH2CHCPOCo2PO6NH3CH2CHCO5NH3CH2CHCPOCo2
_chemical_formula_sum              "P8 O48 N8 H48 C24 Co8"
_cell_length_a       10.8744
_cell_length_b       9.9568
_cell_length_c       15.2868
_cell_angle_alpha    90
_cell_angle_beta     98.03
_cell_angle_gamma    90

_space_group_name_H-M_alt    "P 1"
_space_group_IT_number       1

loop_
  _space_group_symop_operation_xyz
  'x, y, z'

loop_
  _atom_site_type_symbol
  _atom_site_label
  _atom_site_symmetry_multiplicity
  _atom_site_fract_x
  _atom_site_fract_y
  _atom_site_fract_z
  _atom_site_occupancy
  P   P1        1.0  0.17850  0.77203  0.29415  1.0000
  O   O1        1.0  0.27080  0.84380  0.24720  1.0000
  O   O2        1.0  0.04485  0.80810  0.25955  1.0000
  O   O3        1.0  0.20720  0.82530  0.39480  1.0000
  O   O4        1.0  0.19420  0.61990  0.29760  1.0000
  O   O5        1.0  0.40030  0.90010  0.08780  1.0000
  O   O6        1.0  0.38290  0.68250  0.05010  1.0000
  N   N1        1.0  0.15610  0.94540  0.06445  1.0000
  H   H1        1.0  0.16235  0.99530  0.01700  1.0000
  H   H2        1.0  0.20320  0.98040  0.11115  1.0000
  H   H3        1.0  0.07730  0.94350  0.07420  1.0000
  C   C1        1.0  0.14250  0.75740  0.45895  1.0000
  H   H4        1.0  0.15235  0.66090  0.45455  1.0000
  H   H5        1.0  0.05460  0.77850  0.44835  1.0000
  C   C2        1.0  0.19855  0.80600  0.04930  1.0000
  H   H6        1.0  0.16745  0.74780  0.09300  1.0000
  C   C3        1.0  0.34105  0.79630  0.06380  1.0000
  O   O7        1.0  0.45515  0.30810  0.24045  1.0000
  O   O8        1.0  0.29280  0.32530  0.10520  1.0000
  O   O9        1.0  0.30580  0.11990  0.20240  1.0000
  O   O10       1.0  0.09970  0.40010  0.41220  1.0000
  O   O11       1.0  0.11710  0.18250  0.44990  1.0000
  N   N2        1.0  0.34390  0.44540  0.43555  1.0000
  H   H7        1.0  0.33765  0.49530  0.48300  1.0000
  H   H8        1.0  0.29680  0.48040  0.38885  1.0000
  H   H9        1.0  0.42270  0.44350  0.42580  1.0000
  C   C4        1.0  0.35750  0.25740  0.04105  1.0000
  H   H10       1.0  0.34765  0.16090  0.04545  1.0000
  H   H11       1.0  0.44540  0.27850  0.05165  1.0000
  C   C5        1.0  0.30145  0.30600  0.45070  1.0000
  H   H12       1.0  0.33255  0.24780  0.40700  1.0000
  C   C6        1.0  0.15895  0.29630  0.43620  1.0000
  P   P2        1.0  0.32150  0.27203  0.20585  1.0000
  O   O12       1.0  0.22920  0.34380  0.25280  1.0000
  Co  Co1       1.0  0.42252  0.95915  0.23997  1.0000
  Co  Co2       1.0  0.07748  0.45915  0.26003  1.0000
  P   P3        1.0  0.17850  0.77203  0.79415  1.0000
  O   O13       1.0  0.27080  0.84380  0.74720  1.0000
  O   O14       1.0  0.04485  0.80810  0.75955  1.0000
  O   O15       1.0  0.20720  0.82530  0.89480  1.0000
  O   O16       1.0  0.19420  0.61990  0.79760  1.0000
  O   O17       1.0  0.40030  0.90010  0.58780  1.0000
  O   O18       1.0  0.38290  0.68250  0.55010  1.0000
  N   N3        1.0  0.15610  0.94540  0.56445  1.0000
  H   H13       1.0  0.16235  0.99530  0.51700  1.0000
  H   H14       1.0  0.20320  0.98040  0.61115  1.0000
  H   H15       1.0  0.07730  0.94350  0.57420  1.0000
  C   C7        1.0  0.14250  0.75740  0.95895  1.0000
  H   H16       1.0  0.15235  0.66090  0.95455  1.0000
  H   H17       1.0  0.05460  0.77850  0.94835  1.0000
  C   C8        1.0  0.19855  0.80600  0.54930  1.0000
  H   H18       1.0  0.16745  0.74780  0.59300  1.0000
  C   C9        1.0  0.34105  0.79630  0.56380  1.0000
  O   O19       1.0  0.45515  0.30810  0.74045  1.0000
  O   O20       1.0  0.29280  0.32530  0.60520  1.0000
  O   O21       1.0  0.30580  0.11990  0.70240  1.0000
  O   O22       1.0  0.09970  0.40010  0.91220  1.0000
  O   O23       1.0  0.11710  0.18250  0.94990  1.0000
  N   N4        1.0  0.34390  0.44540  0.93555  1.0000
  H   H19       1.0  0.33765  0.49530  0.98300  1.0000
  H   H20       1.0  0.29680  0.48040  0.88885  1.0000
  H   H21       1.0  0.42270  0.44350  0.92580  1.0000
  C   C10       1.0  0.35750  0.25740  0.54105  1.0000
  H   H22       1.0  0.34765  0.16090  0.54545  1.0000
  H   H23       1.0  0.44540  0.27850  0.55165  1.0000
  C   C11       1.0  0.30145  0.30600  0.95070  1.0000
  H   H24       1.0  0.33255  0.24780  0.90700  1.0000
  C   C12       1.0  0.15895  0.29630  0.93620  1.0000
  P   P4        1.0  0.32150  0.27203  0.70585  1.0000
  O   O24       1.0  0.22920  0.34380  0.75280  1.0000
  Co  Co3       1.0  0.42252  0.95915  0.73997  1.0000
  Co  Co4       1.0  0.07747  0.45915  0.76003  1.0000
  P   P5        1.0  0.67850  0.77203  0.29415  1.0000
  O   O25       1.0  0.77080  0.84380  0.24720  1.0000
  O   O26       1.0  0.54485  0.80810  0.25955  1.0000
  O   O27       1.0  0.70720  0.82530  0.39480  1.0000
  O   O28       1.0  0.69420  0.61990  0.29760  1.0000
  O   O29       1.0  0.90030  0.90010  0.08780  1.0000
  O   O30       1.0  0.88290  0.68250  0.05010  1.0000
  N   N5        1.0  0.65610  0.94540  0.06445  1.0000
  H   H25       1.0  0.66235  0.99530  0.01700  1.0000
  H   H26       1.0  0.70320  0.98040  0.11115  1.0000
  H   H27       1.0  0.57730  0.94350  0.07420  1.0000
  C   C13       1.0  0.64250  0.75740  0.45895  1.0000
  H   H28       1.0  0.65235  0.66090  0.45455  1.0000
  H   H29       1.0  0.55460  0.77850  0.44835  1.0000
  C   C14       1.0  0.69855  0.80600  0.04930  1.0000
  H   H30       1.0  0.66745  0.74780  0.09300  1.0000
  C   C15       1.0  0.84105  0.79630  0.06380  1.0000
  O   O31       1.0  0.95515  0.30810  0.24045  1.0000
  O   O32       1.0  0.79280  0.32530  0.10520  1.0000
  O   O33       1.0  0.80580  0.11990  0.20240  1.0000
  O   O34       1.0  0.59970  0.40010  0.41220  1.0000
  O   O35       1.0  0.61710  0.18250  0.44990  1.0000
  N   N6        1.0  0.84390  0.44540  0.43555  1.0000
  H   H31       1.0  0.83765  0.49530  0.48300  1.0000
  H   H32       1.0  0.79680  0.48040  0.38885  1.0000
  H   H33       1.0  0.92270  0.44350  0.42580  1.0000
  C   C16       1.0  0.85750  0.25740  0.04105  1.0000
  H   H34       1.0  0.84765  0.16090  0.04545  1.0000
  H   H35       1.0  0.94540  0.27850  0.05165  1.0000
  C   C17       1.0  0.80145  0.30600  0.45070  1.0000
  H   H36       1.0  0.83255  0.24780  0.40700  1.0000
  C   C18       1.0  0.65895  0.29630  0.43620  1.0000
  P   P6        1.0  0.82150  0.27203  0.20585  1.0000
  O   O36       1.0  0.72920  0.34380  0.25280  1.0000
  Co  Co5       1.0  0.92252  0.95915  0.23997  1.0000
  Co  Co6       1.0  0.57747  0.45915  0.26003  1.0000
  P   P7        1.0  0.67850  0.77203  0.79415  1.0000
  O   O37       1.0  0.77080  0.84380  0.74720  1.0000
  O   O38       1.0  0.54485  0.80810  0.75955  1.0000
  O   O39       1.0  0.70720  0.82530  0.89480  1.0000
  O   O40       1.0  0.69420  0.61990  0.79760  1.0000
  O   O41       1.0  0.90030  0.90010  0.58780  1.0000
  O   O42       1.0  0.88290  0.68250  0.55010  1.0000
  N   N7        1.0  0.65610  0.94540  0.56445  1.0000
  H   H37       1.0  0.66235  0.99530  0.51700  1.0000
  H   H38       1.0  0.70320  0.98040  0.61115  1.0000
  H   H39       1.0  0.57730  0.94350  0.57420  1.0000
  C   C19       1.0  0.64250  0.75740  0.95895  1.0000
  H   H40       1.0  0.65235  0.66090  0.95455  1.0000
  H   H41       1.0  0.55460  0.77850  0.94835  1.0000
  C   C20       1.0  0.69855  0.80600  0.54930  1.0000
  H   H42       1.0  0.66745  0.74780  0.59300  1.0000
  C   C21       1.0  0.84105  0.79630  0.56380  1.0000
  O   O43       1.0  0.95515  0.30810  0.74045  1.0000
  O   O44       1.0  0.79280  0.32530  0.60520  1.0000
  O   O45       1.0  0.80580  0.11990  0.70240  1.0000
  O   O46       1.0  0.59970  0.40010  0.91220  1.0000
  O   O47       1.0  0.61710  0.18250  0.94990  1.0000
  N   N8        1.0  0.84390  0.44540  0.93555  1.0000
  H   H43       1.0  0.83765  0.49530  0.98300  1.0000
  H   H44       1.0  0.79680  0.48040  0.88885  1.0000
  H   H45       1.0  0.92270  0.44350  0.92580  1.0000
  C   C22       1.0  0.85750  0.25740  0.54105  1.0000
  H   H46       1.0  0.84765  0.16090  0.54545  1.0000
  H   H47       1.0  0.94540  0.27850  0.55165  1.0000
  C   C23       1.0  0.80145  0.30600  0.95070  1.0000
  H   H48       1.0  0.83255  0.24780  0.90700  1.0000
  C   C24       1.0  0.65895  0.29630  0.93620  1.0000
  P   P8        1.0  0.82150  0.27203  0.70585  1.0000
  O   O48       1.0  0.72920  0.34380  0.75280  1.0000
  Co  Co7       1.0  0.92252  0.95915  0.73997  1.0000
  Co  Co8       1.0  0.57747  0.45915  0.76003  1.0000
