data_image0
_chemical_formula_structural       O3HON2HN2C7HCHC2HCHCHCHCHO3HON2HN2C7HCHC2HCHCHCHCHO3HON2HN2C7HCHC2HCHCHCHCHO3HON2HN2C7HCHC2HCHCHCHCHON2HN2C7HCHC2HCHCHCHCHO3HO3HON2HN2C7HCHC2HCHCHCHCHO3HON2HN2C7HCHC2HCHCHCHCHO3HON2HN2C7HCHC2HCHCHCHCHN2C7HCHC2HCHCHCHCHO3HON2HO3HON2HN2C7HCHC2HCHCHCHCHO3HON2HN2C7HCHC2HCHCHCHCHO3HON2HN2C7HCHC2HCHCHCHCHNi6
_chemical_formula_sum              "O48 H108 N48 C168 Ni6"
_cell_length_a       19.5867
_cell_length_b       19.5867
_cell_length_c       14.4855
_cell_angle_alpha    90
_cell_angle_beta     90
_cell_angle_gamma    120

_space_group_name_H-M_alt    "P 1"
_space_group_IT_number       1

loop_
  _space_group_symop_operation_xyz
  'x, y, z'

loop_
  _atom_site_type_symbol
  _atom_site_label
  _atom_site_symmetry_multiplicity
  _atom_site_fract_x
  _atom_site_fract_y
  _atom_site_fract_z
  _atom_site_occupancy
  O   O1        1.0  0.34944  0.88069  0.28477  1.0000
  O   O2        1.0  0.23329  0.78883  0.34106  1.0000
  O   O3        1.0  0.11240  0.78493  0.39829  1.0000
  H   H1        1.0  0.15400  0.78730  0.38400  1.0000
  O   O4        1.0  0.07475  0.86996  0.43850  1.0000
  N   N1        1.0  0.32983  0.99983  0.34714  1.0000
  N   N2        1.0  0.22443  0.99724  0.40252  1.0000
  H   H2        1.0  0.19390  0.01340  0.42370  1.0000
  N   N3        1.0  0.44465  0.37608  0.38420  1.0000
  N   N4        1.0  0.52187  0.49986  0.34441  1.0000
  C   C1        1.0  0.12423  0.85516  0.41100  1.0000
  C   C2        1.0  0.20474  0.92070  0.39045  1.0000
  C   C3        1.0  0.27074  0.92267  0.35581  1.0000
  C   C4        1.0  0.28564  0.85982  0.32534  1.0000
  C   C5        1.0  0.30000  0.04354  0.37562  1.0000
  C   C6        1.0  0.33898  0.12977  0.37721  1.0000
  C   C7        1.0  0.29477  0.16610  0.36330  1.0000
  H   H3        1.0  0.24100  0.13560  0.35200  1.0000
  C   C8        1.0  0.32974  0.24715  0.36620  1.0000
  H   H4        1.0  0.29990  0.27130  0.35630  1.0000
  C   C9        1.0  0.40967  0.29207  0.38370  1.0000
  C   C10       1.0  0.45501  0.25708  0.39760  1.0000
  H   H5        1.0  0.50880  0.28770  0.40930  1.0000
  C   C11       1.0  0.41938  0.17578  0.39400  1.0000
  H   H6        1.0  0.44950  0.15170  0.40290  1.0000
  C   C12       1.0  0.41024  0.41785  0.41730  1.0000
  H   H7        1.0  0.36310  0.39780  0.44970  1.0000
  C   C13       1.0  0.45853  0.49341  0.39300  1.0000
  H   H8        1.0  0.45030  0.53510  0.40700  1.0000
  C   C14       1.0  0.51155  0.42841  0.34080  1.0000
  H   H9        1.0  0.54600  0.41550  0.31200  1.0000
  O   O5        1.0  0.11931  0.46875  0.28477  1.0000
  O   O6        1.0  0.21117  0.44446  0.34106  1.0000
  O   O7        1.0  0.21507  0.32747  0.39829  1.0000
  H   H10       1.0  0.21270  0.36670  0.38400  1.0000
  O   O8        1.0  0.13004  0.20479  0.43850  1.0000
  N   N5        1.0  0.00017  0.33000  0.34714  1.0000
  N   N6        1.0  0.00276  0.22719  0.40252  1.0000
  H   H11       1.0  0.98660  0.18050  0.42370  1.0000
  N   N7        1.0  0.62392  0.06857  0.38420  1.0000
  N   N8        1.0  0.50014  0.02201  0.34441  1.0000
  C   C15       1.0  0.14484  0.26907  0.41100  1.0000
  C   C16       1.0  0.07930  0.28404  0.39045  1.0000
  C   C17       1.0  0.07733  0.34807  0.35581  1.0000
  C   C18       1.0  0.14018  0.42582  0.32534  1.0000
  C   C19       1.0  0.95646  0.25646  0.37562  1.0000
  C   C20       1.0  0.87023  0.20921  0.37721  1.0000
  C   C21       1.0  0.83390  0.12867  0.36330  1.0000
  H   H12       1.0  0.86440  0.10540  0.35200  1.0000
  C   C22       1.0  0.75285  0.08259  0.36620  1.0000
  H   H13       1.0  0.72870  0.02860  0.35630  1.0000
  C   C23       1.0  0.70793  0.11760  0.38370  1.0000
  C   C24       1.0  0.74292  0.19793  0.39760  1.0000
  H   H14       1.0  0.71230  0.22110  0.40930  1.0000
  C   C25       1.0  0.82422  0.24360  0.39400  1.0000
  H   H15       1.0  0.84830  0.29780  0.40290  1.0000
  C   C26       1.0  0.58215  0.99239  0.41730  1.0000
  H   H16       1.0  0.60220  0.96530  0.44970  1.0000
  C   C27       1.0  0.50659  0.96512  0.39300  1.0000
  H   H17       1.0  0.46490  0.91520  0.40700  1.0000
  C   C28       1.0  0.57159  0.08314  0.34080  1.0000
  H   H18       1.0  0.58450  0.13050  0.31200  1.0000
  O   O9        1.0  0.53125  0.65056  0.28477  1.0000
  O   O10       1.0  0.55554  0.76671  0.34106  1.0000
  O   O11       1.0  0.67253  0.88760  0.39829  1.0000
  H   H19       1.0  0.63330  0.84600  0.38400  1.0000
  O   O12       1.0  0.79521  0.92525  0.43850  1.0000
  N   N9        1.0  0.67000  0.67017  0.34714  1.0000
  N   N10       1.0  0.77281  0.77557  0.40252  1.0000
  H   H20       1.0  0.81950  0.80610  0.42370  1.0000
  N   N11       1.0  0.93143  0.55535  0.38420  1.0000
  N   N12       1.0  0.97799  0.47813  0.34441  1.0000
  C   C29       1.0  0.73093  0.87577  0.41100  1.0000
  C   C30       1.0  0.71596  0.79526  0.39045  1.0000
  C   C31       1.0  0.65193  0.72926  0.35581  1.0000
  C   C32       1.0  0.57418  0.71436  0.32534  1.0000
  C   C33       1.0  0.74354  0.70000  0.37562  1.0000
  C   C34       1.0  0.79079  0.66102  0.37721  1.0000
  C   C35       1.0  0.87133  0.70523  0.36330  1.0000
  H   H21       1.0  0.89460  0.75900  0.35200  1.0000
  C   C36       1.0  0.91741  0.67026  0.36620  1.0000
  H   H22       1.0  0.97140  0.70010  0.35630  1.0000
  C   C37       1.0  0.88240  0.59033  0.38370  1.0000
  C   C38       1.0  0.80207  0.54499  0.39760  1.0000
  H   H23       1.0  0.77890  0.49120  0.40930  1.0000
  C   C39       1.0  0.75640  0.58062  0.39400  1.0000
  H   H24       1.0  0.70220  0.55050  0.40290  1.0000
  C   C40       1.0  0.00761  0.58976  0.41730  1.0000
  H   H25       1.0  0.03470  0.63690  0.44970  1.0000
  C   C41       1.0  0.03488  0.54147  0.39300  1.0000
  H   H26       1.0  0.08480  0.54970  0.40700  1.0000
  C   C42       1.0  0.91686  0.48845  0.34080  1.0000
  H   H27       1.0  0.86950  0.45400  0.31200  1.0000
  O   O13       1.0  0.88069  0.34944  0.21523  1.0000
  O   O14       1.0  0.78883  0.23329  0.15894  1.0000
  O   O15       1.0  0.78493  0.11240  0.10171  1.0000
  H   H28       1.0  0.78730  0.15400  0.11600  1.0000
  O   O16       1.0  0.86996  0.07475  0.06150  1.0000
  N   N13       1.0  0.99983  0.32983  0.15286  1.0000
  N   N14       1.0  0.99724  0.22443  0.09748  1.0000
  H   H29       1.0  0.01340  0.19390  0.07630  1.0000
  N   N15       1.0  0.37608  0.44465  0.11580  1.0000
  N   N16       1.0  0.49986  0.52187  0.15559  1.0000
  C   C43       1.0  0.85516  0.12423  0.08900  1.0000
  C   C44       1.0  0.92070  0.20474  0.10955  1.0000
  C   C45       1.0  0.92267  0.27074  0.14419  1.0000
  C   C46       1.0  0.85982  0.28564  0.17466  1.0000
  C   C47       1.0  0.04354  0.30000  0.12438  1.0000
  C   C48       1.0  0.12977  0.33898  0.12279  1.0000
  C   C49       1.0  0.16610  0.29477  0.13670  1.0000
  H   H30       1.0  0.13560  0.24100  0.14800  1.0000
  C   C50       1.0  0.24715  0.32974  0.13380  1.0000
  H   H31       1.0  0.27130  0.29990  0.14370  1.0000
  C   C51       1.0  0.29207  0.40967  0.11630  1.0000
  C   C52       1.0  0.25708  0.45501  0.10240  1.0000
  H   H32       1.0  0.28770  0.50880  0.09070  1.0000
  C   C53       1.0  0.17578  0.41938  0.10600  1.0000
  H   H33       1.0  0.15170  0.44950  0.09710  1.0000
  C   C54       1.0  0.41785  0.41024  0.08270  1.0000
  H   H34       1.0  0.39780  0.36310  0.05030  1.0000
  C   C55       1.0  0.49341  0.45853  0.10700  1.0000
  H   H35       1.0  0.53510  0.45030  0.09300  1.0000
  C   C56       1.0  0.42841  0.51155  0.15920  1.0000
  H   H36       1.0  0.41550  0.54600  0.18800  1.0000
  O   O17       1.0  0.20479  0.13004  0.06150  1.0000
  N   N17       1.0  0.33000  0.00017  0.15286  1.0000
  N   N18       1.0  0.22719  0.00276  0.09748  1.0000
  H   H37       1.0  0.18050  0.98660  0.07630  1.0000
  N   N19       1.0  0.06857  0.62392  0.11580  1.0000
  N   N20       1.0  0.02201  0.50014  0.15559  1.0000
  C   C57       1.0  0.26907  0.14484  0.08900  1.0000
  C   C58       1.0  0.28404  0.07930  0.10955  1.0000
  C   C59       1.0  0.34807  0.07733  0.14419  1.0000
  C   C60       1.0  0.42582  0.14018  0.17466  1.0000
  C   C61       1.0  0.25646  0.95646  0.12438  1.0000
  C   C62       1.0  0.20921  0.87023  0.12279  1.0000
  C   C63       1.0  0.12867  0.83390  0.13670  1.0000
  H   H38       1.0  0.10540  0.86440  0.14800  1.0000
  C   C64       1.0  0.08259  0.75285  0.13380  1.0000
  H   H39       1.0  0.02860  0.72870  0.14370  1.0000
  C   C65       1.0  0.11760  0.70793  0.11630  1.0000
  C   C66       1.0  0.19793  0.74292  0.10240  1.0000
  H   H40       1.0  0.22110  0.71230  0.09070  1.0000
  C   C67       1.0  0.24360  0.82422  0.10600  1.0000
  H   H41       1.0  0.29780  0.84830  0.09710  1.0000
  C   C68       1.0  0.99239  0.58215  0.08270  1.0000
  H   H42       1.0  0.96530  0.60220  0.05030  1.0000
  C   C69       1.0  0.96512  0.50659  0.10700  1.0000
  H   H43       1.0  0.91520  0.46490  0.09300  1.0000
  C   C70       1.0  0.08314  0.57159  0.15920  1.0000
  H   H44       1.0  0.13050  0.58450  0.18800  1.0000
  O   O18       1.0  0.46875  0.11931  0.21523  1.0000
  O   O19       1.0  0.44446  0.21117  0.15894  1.0000
  O   O20       1.0  0.32747  0.21507  0.10171  1.0000
  H   H45       1.0  0.36670  0.21270  0.11600  1.0000
  O   O21       1.0  0.65056  0.53125  0.21523  1.0000
  O   O22       1.0  0.76671  0.55554  0.15894  1.0000
  O   O23       1.0  0.88760  0.67253  0.10171  1.0000
  H   H46       1.0  0.84600  0.63330  0.11600  1.0000
  O   O24       1.0  0.92525  0.79521  0.06150  1.0000
  N   N21       1.0  0.67017  0.67000  0.15286  1.0000
  N   N22       1.0  0.77557  0.77281  0.09748  1.0000
  H   H47       1.0  0.80610  0.81950  0.07630  1.0000
  N   N23       1.0  0.55535  0.93143  0.11580  1.0000
  N   N24       1.0  0.47813  0.97799  0.15559  1.0000
  C   C71       1.0  0.87577  0.73093  0.08900  1.0000
  C   C72       1.0  0.79526  0.71596  0.10955  1.0000
  C   C73       1.0  0.72926  0.65193  0.14419  1.0000
  C   C74       1.0  0.71436  0.57418  0.17466  1.0000
  C   C75       1.0  0.70000  0.74354  0.12438  1.0000
  C   C76       1.0  0.66102  0.79079  0.12279  1.0000
  C   C77       1.0  0.70523  0.87133  0.13670  1.0000
  H   H48       1.0  0.75900  0.89460  0.14800  1.0000
  C   C78       1.0  0.67026  0.91741  0.13380  1.0000
  H   H49       1.0  0.70010  0.97140  0.14370  1.0000
  C   C79       1.0  0.59033  0.88240  0.11630  1.0000
  C   C80       1.0  0.54499  0.80207  0.10240  1.0000
  H   H50       1.0  0.49120  0.77890  0.09070  1.0000
  C   C81       1.0  0.58062  0.75640  0.10600  1.0000
  H   H51       1.0  0.55050  0.70220  0.09710  1.0000
  C   C82       1.0  0.58976  0.00761  0.08270  1.0000
  H   H52       1.0  0.63690  0.03470  0.05030  1.0000
  C   C83       1.0  0.54147  0.03488  0.10700  1.0000
  H   H53       1.0  0.54970  0.08480  0.09300  1.0000
  C   C84       1.0  0.48845  0.91686  0.15920  1.0000
  H   H54       1.0  0.45400  0.86950  0.18800  1.0000
  O   O25       1.0  0.65056  0.11931  0.71523  1.0000
  O   O26       1.0  0.76671  0.21117  0.65894  1.0000
  O   O27       1.0  0.88760  0.21507  0.60171  1.0000
  H   H55       1.0  0.84600  0.21270  0.61600  1.0000
  O   O28       1.0  0.92525  0.13004  0.56150  1.0000
  N   N25       1.0  0.67017  0.00017  0.65286  1.0000
  N   N26       1.0  0.77557  0.00276  0.59748  1.0000
  H   H56       1.0  0.80610  0.98660  0.57630  1.0000
  N   N27       1.0  0.55535  0.62392  0.61580  1.0000
  N   N28       1.0  0.47813  0.50014  0.65559  1.0000
  C   C85       1.0  0.87577  0.14484  0.58900  1.0000
  C   C86       1.0  0.79526  0.07930  0.60955  1.0000
  C   C87       1.0  0.72926  0.07733  0.64419  1.0000
  C   C88       1.0  0.71436  0.14018  0.67466  1.0000
  C   C89       1.0  0.70000  0.95646  0.62438  1.0000
  C   C90       1.0  0.66102  0.87023  0.62279  1.0000
  C   C91       1.0  0.70523  0.83390  0.63670  1.0000
  H   H57       1.0  0.75900  0.86440  0.64800  1.0000
  C   C92       1.0  0.67026  0.75285  0.63380  1.0000
  H   H58       1.0  0.70010  0.72870  0.64370  1.0000
  C   C93       1.0  0.59033  0.70793  0.61630  1.0000
  C   C94       1.0  0.54499  0.74292  0.60240  1.0000
  H   H59       1.0  0.49120  0.71230  0.59070  1.0000
  C   C95       1.0  0.58062  0.82422  0.60600  1.0000
  H   H60       1.0  0.55050  0.84830  0.59710  1.0000
  C   C96       1.0  0.58976  0.58215  0.58270  1.0000
  H   H61       1.0  0.63690  0.60220  0.55030  1.0000
  C   C97       1.0  0.54147  0.50659  0.60700  1.0000
  H   H62       1.0  0.54970  0.46490  0.59300  1.0000
  C   C98       1.0  0.48845  0.57159  0.65920  1.0000
  H   H63       1.0  0.45400  0.58450  0.68800  1.0000
  O   O29       1.0  0.88069  0.53125  0.71523  1.0000
  O   O30       1.0  0.78883  0.55554  0.65894  1.0000
  O   O31       1.0  0.78493  0.67253  0.60171  1.0000
  H   H64       1.0  0.78730  0.63330  0.61600  1.0000
  O   O32       1.0  0.86996  0.79521  0.56150  1.0000
  N   N29       1.0  0.99983  0.67000  0.65286  1.0000
  N   N30       1.0  0.99724  0.77281  0.59748  1.0000
  H   H65       1.0  0.01340  0.81950  0.57630  1.0000
  N   N31       1.0  0.37608  0.93143  0.61580  1.0000
  N   N32       1.0  0.49986  0.97799  0.65559  1.0000
  C   C99       1.0  0.85516  0.73093  0.58900  1.0000
  C   C100      1.0  0.92070  0.71596  0.60955  1.0000
  C   C101      1.0  0.92267  0.65193  0.64419  1.0000
  C   C102      1.0  0.85982  0.57418  0.67466  1.0000
  C   C103      1.0  0.04354  0.74354  0.62438  1.0000
  C   C104      1.0  0.12977  0.79079  0.62279  1.0000
  C   C105      1.0  0.16610  0.87133  0.63670  1.0000
  H   H66       1.0  0.13560  0.89460  0.64800  1.0000
  C   C106      1.0  0.24715  0.91741  0.63380  1.0000
  H   H67       1.0  0.27130  0.97140  0.64370  1.0000
  C   C107      1.0  0.29207  0.88240  0.61630  1.0000
  C   C108      1.0  0.25708  0.80207  0.60240  1.0000
  H   H68       1.0  0.28770  0.77890  0.59070  1.0000
  C   C109      1.0  0.17578  0.75640  0.60600  1.0000
  H   H69       1.0  0.15170  0.70220  0.59710  1.0000
  C   C110      1.0  0.41785  0.00761  0.58270  1.0000
  H   H70       1.0  0.39780  0.03470  0.55030  1.0000
  C   C111      1.0  0.49341  0.03488  0.60700  1.0000
  H   H71       1.0  0.53510  0.08480  0.59300  1.0000
  C   C112      1.0  0.42841  0.91686  0.65920  1.0000
  H   H72       1.0  0.41550  0.86950  0.68800  1.0000
  N   N33       1.0  0.06857  0.44465  0.61580  1.0000
  N   N34       1.0  0.02201  0.52187  0.65559  1.0000
  C   C113      1.0  0.26907  0.12423  0.58900  1.0000
  C   C114      1.0  0.28404  0.20474  0.60955  1.0000
  C   C115      1.0  0.34807  0.27074  0.64419  1.0000
  C   C116      1.0  0.42582  0.28564  0.67466  1.0000
  C   C117      1.0  0.25646  0.30000  0.62438  1.0000
  C   C118      1.0  0.20921  0.33898  0.62279  1.0000
  C   C119      1.0  0.12867  0.29477  0.63670  1.0000
  H   H73       1.0  0.10540  0.24100  0.64800  1.0000
  C   C120      1.0  0.08259  0.32974  0.63380  1.0000
  H   H74       1.0  0.02860  0.29990  0.64370  1.0000
  C   C121      1.0  0.11760  0.40967  0.61630  1.0000
  C   C122      1.0  0.19793  0.45501  0.60240  1.0000
  H   H75       1.0  0.22110  0.50880  0.59070  1.0000
  C   C123      1.0  0.24360  0.41938  0.60600  1.0000
  H   H76       1.0  0.29780  0.44950  0.59710  1.0000
  C   C124      1.0  0.99239  0.41024  0.58270  1.0000
  H   H77       1.0  0.96530  0.36310  0.55030  1.0000
  C   C125      1.0  0.96512  0.45853  0.60700  1.0000
  H   H78       1.0  0.91520  0.45030  0.59300  1.0000
  C   C126      1.0  0.08314  0.51155  0.65920  1.0000
  H   H79       1.0  0.13050  0.54600  0.68800  1.0000
  O   O33       1.0  0.46875  0.34944  0.71523  1.0000
  O   O34       1.0  0.44446  0.23329  0.65894  1.0000
  O   O35       1.0  0.32747  0.11240  0.60171  1.0000
  H   H80       1.0  0.36670  0.15400  0.61600  1.0000
  O   O36       1.0  0.20479  0.07475  0.56150  1.0000
  N   N35       1.0  0.33000  0.32983  0.65286  1.0000
  N   N36       1.0  0.22719  0.22443  0.59748  1.0000
  H   H81       1.0  0.18050  0.19390  0.57630  1.0000
  O   O37       1.0  0.11931  0.65056  0.78477  1.0000
  O   O38       1.0  0.21117  0.76671  0.84106  1.0000
  O   O39       1.0  0.21507  0.88760  0.89829  1.0000
  H   H82       1.0  0.21270  0.84600  0.88400  1.0000
  O   O40       1.0  0.13004  0.92525  0.93850  1.0000
  N   N37       1.0  0.00017  0.67017  0.84714  1.0000
  N   N38       1.0  0.00276  0.77557  0.90252  1.0000
  H   H83       1.0  0.98660  0.80610  0.92370  1.0000
  N   N39       1.0  0.62392  0.55535  0.88420  1.0000
  N   N40       1.0  0.50014  0.47813  0.84441  1.0000
  C   C127      1.0  0.14484  0.87577  0.91100  1.0000
  C   C128      1.0  0.07930  0.79526  0.89045  1.0000
  C   C129      1.0  0.07733  0.72926  0.85581  1.0000
  C   C130      1.0  0.14018  0.71436  0.82534  1.0000
  C   C131      1.0  0.95646  0.70000  0.87562  1.0000
  C   C132      1.0  0.87023  0.66102  0.87721  1.0000
  C   C133      1.0  0.83390  0.70523  0.86330  1.0000
  H   H84       1.0  0.86440  0.75900  0.85200  1.0000
  C   C134      1.0  0.75285  0.67026  0.86620  1.0000
  H   H85       1.0  0.72870  0.70010  0.85630  1.0000
  C   C135      1.0  0.70793  0.59033  0.88370  1.0000
  C   C136      1.0  0.74292  0.54499  0.89760  1.0000
  H   H86       1.0  0.71230  0.49120  0.90930  1.0000
  C   C137      1.0  0.82422  0.58062  0.89400  1.0000
  H   H87       1.0  0.84830  0.55050  0.90290  1.0000
  C   C138      1.0  0.58215  0.58976  0.91730  1.0000
  H   H88       1.0  0.60220  0.63690  0.94970  1.0000
  C   C139      1.0  0.50659  0.54147  0.89300  1.0000
  H   H89       1.0  0.46490  0.54970  0.90700  1.0000
  C   C140      1.0  0.57159  0.48845  0.84080  1.0000
  H   H90       1.0  0.58450  0.45400  0.81200  1.0000
  O   O41       1.0  0.53125  0.88069  0.78477  1.0000
  O   O42       1.0  0.55554  0.78883  0.84106  1.0000
  O   O43       1.0  0.67253  0.78493  0.89829  1.0000
  H   H91       1.0  0.63330  0.78730  0.88400  1.0000
  O   O44       1.0  0.79521  0.86996  0.93850  1.0000
  N   N41       1.0  0.67000  0.99983  0.84714  1.0000
  N   N42       1.0  0.77281  0.99724  0.90252  1.0000
  H   H92       1.0  0.81950  0.01340  0.92370  1.0000
  N   N43       1.0  0.93143  0.37608  0.88420  1.0000
  N   N44       1.0  0.97799  0.49986  0.84441  1.0000
  C   C141      1.0  0.73093  0.85516  0.91100  1.0000
  C   C142      1.0  0.71596  0.92070  0.89045  1.0000
  C   C143      1.0  0.65193  0.92267  0.85581  1.0000
  C   C144      1.0  0.57418  0.85982  0.82534  1.0000
  C   C145      1.0  0.74354  0.04354  0.87562  1.0000
  C   C146      1.0  0.79079  0.12977  0.87721  1.0000
  C   C147      1.0  0.87133  0.16610  0.86330  1.0000
  H   H93       1.0  0.89460  0.13560  0.85200  1.0000
  C   C148      1.0  0.91741  0.24715  0.86620  1.0000
  H   H94       1.0  0.97140  0.27130  0.85630  1.0000
  C   C149      1.0  0.88240  0.29207  0.88370  1.0000
  C   C150      1.0  0.80207  0.25708  0.89760  1.0000
  H   H95       1.0  0.77890  0.28770  0.90930  1.0000
  C   C151      1.0  0.75640  0.17578  0.89400  1.0000
  H   H96       1.0  0.70220  0.15170  0.90290  1.0000
  C   C152      1.0  0.00761  0.41785  0.91730  1.0000
  H   H97       1.0  0.03470  0.39780  0.94970  1.0000
  C   C153      1.0  0.03488  0.49341  0.89300  1.0000
  H   H98       1.0  0.08480  0.53510  0.90700  1.0000
  C   C154      1.0  0.91686  0.42841  0.84080  1.0000
  H   H99       1.0  0.86950  0.41550  0.81200  1.0000
  O   O45       1.0  0.34944  0.46875  0.78477  1.0000
  O   O46       1.0  0.23329  0.44446  0.84106  1.0000
  O   O47       1.0  0.11240  0.32747  0.89829  1.0000
  H   H100      1.0  0.15400  0.36670  0.88400  1.0000
  O   O48       1.0  0.07475  0.20479  0.93850  1.0000
  N   N45       1.0  0.32983  0.33000  0.84714  1.0000
  N   N46       1.0  0.22443  0.22719  0.90252  1.0000
  H   H101      1.0  0.19390  0.18050  0.92370  1.0000
  N   N47       1.0  0.44465  0.06857  0.88420  1.0000
  N   N48       1.0  0.52187  0.02201  0.84441  1.0000
  C   C155      1.0  0.12423  0.26907  0.91100  1.0000
  C   C156      1.0  0.20474  0.28404  0.89045  1.0000
  C   C157      1.0  0.27074  0.34807  0.85581  1.0000
  C   C158      1.0  0.28564  0.42582  0.82534  1.0000
  C   C159      1.0  0.30000  0.25646  0.87562  1.0000
  C   C160      1.0  0.33898  0.20921  0.87721  1.0000
  C   C161      1.0  0.29477  0.12867  0.86330  1.0000
  H   H102      1.0  0.24100  0.10540  0.85200  1.0000
  C   C162      1.0  0.32974  0.08259  0.86620  1.0000
  H   H103      1.0  0.29990  0.02860  0.85630  1.0000
  C   C163      1.0  0.40967  0.11760  0.88370  1.0000
  C   C164      1.0  0.45501  0.19793  0.89760  1.0000
  H   H104      1.0  0.50880  0.22110  0.90930  1.0000
  C   C165      1.0  0.41938  0.24360  0.89400  1.0000
  H   H105      1.0  0.44950  0.29780  0.90290  1.0000
  C   C166      1.0  0.41024  0.99239  0.91730  1.0000
  H   H106      1.0  0.36310  0.96530  0.94970  1.0000
  C   C167      1.0  0.45853  0.96512  0.89300  1.0000
  H   H107      1.0  0.45030  0.91520  0.90700  1.0000
  C   C168      1.0  0.51155  0.08314  0.84080  1.0000
  H   H108      1.0  0.54600  0.13050  0.81200  1.0000
  Ni  Ni1       1.0  0.58745  0.58745  0.25000  1.0000
  Ni  Ni2       1.0  0.41255  0.00000  0.25000  1.0000
  Ni  Ni3       1.0  1.00000  0.41255  0.25000  1.0000
  Ni  Ni4       1.0  0.41255  0.41255  0.75000  1.0000
  Ni  Ni5       1.0  0.58745  0.00000  0.75000  1.0000
  Ni  Ni6       1.0  1.00000  0.58745  0.75000  1.0000
