data_image0
_chemical_formula_structural       OCNOCHOCHOCHC4H4OCNOCHOCHOCHC4H4OCNOCHOCHOCHC4H4OCNOCHOCHOCHC4H4OCNOCHOCHOCHC4H4OCNOCHOCHOCHC4H4Fe6O2
_chemical_formula_sum              "O26 C48 N6 H42 Fe6"
_cell_length_a       11.1075
_cell_length_b       11.1075
_cell_length_c       19.0925
_cell_angle_alpha    90
_cell_angle_beta     90
_cell_angle_gamma    120

_space_group_name_H-M_alt    "P 1"
_space_group_IT_number       1

loop_
  _space_group_symop_operation_xyz
  'x, y, z'

loop_
  _atom_site_type_symbol
  _atom_site_label
  _atom_site_symmetry_multiplicity
  _atom_site_fract_x
  _atom_site_fract_y
  _atom_site_fract_z
  _atom_site_occupancy
  O   O1        1.0  0.65174  0.53936  0.83607  1.0000
  C   C1        1.0  0.36033  0.42512  0.94833  1.0000
  N   N1        1.0  0.25811  0.40123  0.89609  1.0000
  O   O2        1.0  0.54168  0.65491  0.16432  1.0000
  C   C2        1.0  0.33294  0.44544  0.01867  1.0000
  H   H1        1.0  0.23535  0.44087  0.03047  1.0000
  O   O3        1.0  0.35699  0.44005  0.19626  1.0000
  C   C3        1.0  0.56011  0.49281  0.05491  1.0000
  H   H2        1.0  0.64100  0.52340  0.09395  1.0000
  O   O4        1.0  0.43768  0.35043  0.80609  1.0000
  C   C4        1.0  0.58834  0.47320  0.98579  1.0000
  H   H3        1.0  0.68967  0.48714  0.97476  1.0000
  C   C5        1.0  0.53755  0.41339  0.85885  1.0000
  C   C6        1.0  0.49042  0.43752  0.93101  1.0000
  C   C7        1.0  0.41538  0.53847  0.14288  1.0000
  C   C8        1.0  0.43278  0.48133  0.07271  1.0000
  H   H4        1.0  0.28406  0.42524  0.84352  1.0000
  H   H5        1.0  0.15780  0.37669  0.91086  1.0000
  H   H6        1.0  0.56807  0.34042  0.87131  1.0000
  H   H7        1.0  0.34316  0.56925  0.13074  1.0000
  O   O5        1.0  0.46360  0.11243  0.83641  1.0000
  C   C9        1.0  0.57903  0.93603  0.94875  1.0000
  N   N2        1.0  0.60269  0.85770  0.89641  1.0000
  O   O6        1.0  0.35010  0.88691  0.16454  1.0000
  C   C10       1.0  0.55987  0.88875  0.01913  1.0000
  H   H8        1.0  0.56501  0.79600  0.03087  1.0000
  O   O7        1.0  0.56490  0.91725  0.19699  1.0000
  C   C11       1.0  0.51180  0.06797  0.05555  1.0000
  H   H9        1.0  0.48121  0.11809  0.09470  1.0000
  O   O8        1.0  0.65255  0.08719  0.80667  1.0000
  C   C12       1.0  0.53028  0.11543  0.98637  1.0000
  H   H10       1.0  0.51593  0.20264  0.97539  1.0000
  C   C13       1.0  0.58956  0.12433  0.85930  1.0000
  C   C14       1.0  0.56572  0.05322  0.93149  1.0000
  C   C15       1.0  0.46690  0.87751  0.14336  1.0000
  C   C16       1.0  0.52414  0.95254  0.07330  1.0000
  H   H11       1.0  0.57672  0.85832  0.84405  1.0000
  H   H12       1.0  0.62832  0.78266  0.91111  1.0000
  H   H13       1.0  0.66231  0.22792  0.87174  1.0000
  H   H14       1.0  0.43646  0.77463  0.13110  1.0000
  O   O9        1.0  0.88969  0.35079  0.83700  1.0000
  C   C17       1.0  0.06855  0.64299  0.94824  1.0000
  N   N3        1.0  0.14700  0.74417  0.89558  1.0000
  O   O10       1.0  0.11845  0.46365  0.16392  1.0000
  C   C18       1.0  0.11692  0.67117  0.01844  1.0000
  H   H15       1.0  0.21057  0.76850  0.02982  1.0000
  O   O11       1.0  0.08799  0.64810  0.19647  1.0000
  C   C19       1.0  0.93598  0.44529  0.05564  1.0000
  H   H16       1.0  0.88550  0.36516  0.09503  1.0000
  O   O12       1.0  0.91536  0.56498  0.80658  1.0000
  C   C20       1.0  0.88753  0.41621  0.98664  1.0000
  H   H17       1.0  0.79932  0.31511  0.97601  1.0000
  C   C21       1.0  0.87826  0.46535  0.85949  1.0000
  C   C22       1.0  0.95003  0.51312  0.93148  1.0000
  C   C23       1.0  0.12794  0.59001  0.14284  1.0000
  C   C24       1.0  0.05277  0.57235  0.07288  1.0000
  H   H18       1.0  0.14466  0.71720  0.84316  1.0000
  H   H19       1.0  0.22371  0.84434  0.90998  1.0000
  H   H20       1.0  0.77484  0.43502  0.87207  1.0000
  H   H21       1.0  0.23086  0.66251  0.13053  1.0000
  O   O13       1.0  0.30449  0.44289  0.33544  1.0000
  C   C25       1.0  0.59715  0.61599  0.46725  1.0000
  N   N4        1.0  0.70267  0.74238  0.43626  1.0000
  O   O14       1.0  0.44106  0.29865  0.66677  1.0000
  C   C26       1.0  0.61390  0.59014  0.53837  1.0000
  H   H22       1.0  0.70606  0.66459  0.56649  1.0000
  O   O15       1.0  0.59526  0.52778  0.69649  1.0000
  C   C27       1.0  0.40351  0.36879  0.53298  1.0000
  H   H23       1.0  0.32847  0.26980  0.55541  1.0000
  O   O16       1.0  0.53170  0.59672  0.30376  1.0000
  C   C28       1.0  0.38617  0.39231  0.46258  1.0000
  H   H24       1.0  0.29614  0.31168  0.43581  1.0000
  C   C29       1.0  0.43407  0.55355  0.35801  1.0000
  C   C30       1.0  0.47943  0.51714  0.42801  1.0000
  C   C31       1.0  0.55189  0.42699  0.64372  1.0000
  C   C32       1.0  0.51682  0.46767  0.57278  1.0000
  H   H25       1.0  0.70806  0.75997  0.38262  1.0000
  H   H26       1.0  0.78433  0.81666  0.46664  1.0000
  H   H27       1.0  0.42384  0.63940  0.37336  1.0000
  H   H28       1.0  0.63858  0.41834  0.62976  1.0000
  O   O17       1.0  0.56119  0.86093  0.33597  1.0000
  C   C33       1.0  0.38741  0.97996  0.46767  1.0000
  N   N5        1.0  0.26122  0.95939  0.43655  1.0000
  O   O18       1.0  0.70439  0.14147  0.66737  1.0000
  C   C34       1.0  0.41309  0.02257  0.53879  1.0000
  H   H29       1.0  0.33862  0.04035  0.56683  1.0000
  O   O19       1.0  0.47516  0.06670  0.69692  1.0000
  C   C35       1.0  0.63430  0.03321  0.53366  1.0000
  H   H30       1.0  0.73316  0.05703  0.55618  1.0000
  O   O20       1.0  0.40747  0.93432  0.30424  1.0000
  C   C36       1.0  0.61097  0.99236  0.46326  1.0000
  H   H31       1.0  0.69166  0.98293  0.43658  1.0000
  C   C37       1.0  0.45028  0.87953  0.35847  1.0000
  C   C38       1.0  0.48632  0.96098  0.42856  1.0000
  C   C39       1.0  0.57603  0.12380  0.64420  1.0000
  C   C40       1.0  0.53542  0.04785  0.57332  1.0000
  H   H32       1.0  0.24294  0.94535  0.38299  1.0000
  H   H33       1.0  0.18756  0.96835  0.46669  1.0000
  H   H34       1.0  0.36433  0.78336  0.37363  1.0000
  H   H35       1.0  0.58464  0.21905  0.63013  1.0000
  O   O21       1.0  0.14275  0.69933  0.33549  1.0000
  C   C41       1.0  0.02424  0.40487  0.46550  1.0000
  N   N6        1.0  0.04398  0.29911  0.43410  1.0000
  O   O22       1.0  0.86140  0.56181  0.66699  1.0000
  C   C42       1.0  0.98010  0.38714  0.54045  1.0000
  H   H36       1.0  0.96094  0.29425  0.56829  1.0000
  O   O23       1.0  0.93612  0.40794  0.69757  1.0000
  C   C43       1.0  0.97095  0.59819  0.53359  1.0000
  H   H37       1.0  0.94763  0.67381  0.55585  1.0000
  O   O24       1.0  0.06977  0.47264  0.30309  1.0000
  C   C44       1.0  0.01211  0.61592  0.46309  1.0000
  H   H38       1.0  0.02204  0.70668  0.43686  1.0000
  C   C45       1.0  0.12433  0.56973  0.35750  1.0000
  C   C46       1.0  0.04305  0.52320  0.42743  1.0000
  C   C47       1.0  0.87905  0.45085  0.64452  1.0000
  C   C48       1.0  0.95531  0.48496  0.57393  1.0000
  H   H39       1.0  0.05570  0.29381  0.38040  1.0000
  H   H40       1.0  0.03599  0.21725  0.46448  1.0000
  H   H41       1.0  0.22061  0.58021  0.37243  1.0000
  H   H42       1.0  0.78377  0.36422  0.63065  1.0000
  Fe  Fe1       1.0  0.75207  0.53899  0.75161  1.0000
  Fe  Fe2       1.0  0.46391  0.21274  0.75159  1.0000
  Fe  Fe3       1.0  0.79001  0.25063  0.75216  1.0000
  Fe  Fe4       1.0  0.21766  0.46373  0.24966  1.0000
  Fe  Fe5       1.0  0.54094  0.75380  0.25023  1.0000
  Fe  Fe6       1.0  0.25074  0.78688  0.25016  1.0000
  O   O25       1.0  0.66875  0.33418  0.75207  1.0000
  O   O26       1.0  0.33658  0.66820  0.25013  1.0000
