data_image0
_chemical_formula_structural       OH2OHOHO2HOHOHOH2O2HOH2OHO2HOHOHOH2OHO2HOH2O2H2O2HOH2OHOHO2H2O2H2OHO2HOH2O2HOHOHOH2OHOHO2H2O2HOH2O2H2OHOHO2HOHOH2OHO2HOHOHOHOH2OV6O18B9V6O18B9V6O18B9V6O18B9V6O18B9V6O18B9V6O18B9V6O18B9
_chemical_formula_sum              "O208 H64 V48 B72"
_cell_length_a       18.968
_cell_length_b       18.443
_cell_length_c       19.815
_cell_angle_alpha    90
_cell_angle_beta     92.77
_cell_angle_gamma    90

_space_group_name_H-M_alt    "P 1"
_space_group_IT_number       1

loop_
  _space_group_symop_operation_xyz
  'x, y, z'

loop_
  _atom_site_type_symbol
  _atom_site_label
  _atom_site_symmetry_multiplicity
  _atom_site_fract_x
  _atom_site_fract_y
  _atom_site_fract_z
  _atom_site_occupancy
  O   O1        1.0  0.23876  0.79057  0.33130  1.0000
  H   H1        1.0  0.25600  0.75600  0.30900  1.0000
  H   H2        1.0  0.16900  0.70400  0.34700  1.0000
  O   O2        1.0  0.16090  0.66615  0.36938  1.0000
  H   H3        1.0  0.14300  0.78000  0.42200  1.0000
  O   O3        1.0  0.11250  0.80604  0.39984  1.0000
  H   H4        1.0  0.35600  0.88100  0.24000  1.0000
  O   O4        1.0  0.36390  0.85360  0.27375  1.0000
  O   O5        1.0  0.14810  0.51050  0.37760  1.0000
  H   H5        1.0  0.15200  0.50300  0.41980  1.0000
  O   O6        1.0  0.61450  0.89270  0.49680  1.0000
  H   H6        1.0  0.60800  0.93510  0.50600  1.0000
  O   O7        1.0  0.41370  0.53940  0.22749  1.0000
  H   H7        1.0  0.39180  0.50130  0.22270  1.0000
  O   O8        1.0  0.20720  0.13080  0.36810  1.0000
  H   H8        1.0  0.22700  0.13500  0.33300  1.0000
  H   H9        1.0  0.75600  0.25600  0.30900  1.0000
  O   O9        1.0  0.73876  0.29057  0.33130  1.0000
  O   O10       1.0  0.66090  0.16615  0.36938  1.0000
  H   H10       1.0  0.66900  0.20400  0.34700  1.0000
  O   O11       1.0  0.61250  0.30604  0.39984  1.0000
  H   H11       1.0  0.64300  0.28000  0.42200  1.0000
  H   H12       1.0  0.85600  0.38100  0.24000  1.0000
  O   O12       1.0  0.86390  0.35360  0.27375  1.0000
  H   H13       1.0  0.65200  0.00300  0.41980  1.0000
  O   O13       1.0  0.64810  0.01050  0.37760  1.0000
  O   O14       1.0  0.11450  0.39270  0.49680  1.0000
  H   H14       1.0  0.10800  0.43510  0.50600  1.0000
  O   O15       1.0  0.91370  0.03940  0.22749  1.0000
  H   H15       1.0  0.89180  0.00130  0.22270  1.0000
  O   O16       1.0  0.70720  0.63080  0.36810  1.0000
  H   H16       1.0  0.72700  0.63500  0.33300  1.0000
  O   O17       1.0  0.76124  0.79057  0.16870  1.0000
  H   H17       1.0  0.74400  0.75600  0.19100  1.0000
  H   H18       1.0  0.83100  0.70400  0.15300  1.0000
  O   O18       1.0  0.83910  0.66615  0.13062  1.0000
  H   H19       1.0  0.85700  0.78000  0.07800  1.0000
  O   O19       1.0  0.88750  0.80604  0.10016  1.0000
  O   O20       1.0  0.63610  0.85360  0.22625  1.0000
  H   H20       1.0  0.64400  0.88100  0.26000  1.0000
  O   O21       1.0  0.85190  0.51050  0.12240  1.0000
  H   H21       1.0  0.84800  0.50300  0.08020  1.0000
  H   H22       1.0  0.39200  0.93510  0.99400  1.0000
  O   O22       1.0  0.38550  0.89270  0.00320  1.0000
  O   O23       1.0  0.58630  0.53940  0.27251  1.0000
  H   H23       1.0  0.60820  0.50130  0.27730  1.0000
  H   H24       1.0  0.77300  0.13500  0.16700  1.0000
  O   O24       1.0  0.79280  0.13080  0.13190  1.0000
  O   O25       1.0  0.26124  0.29057  0.16870  1.0000
  H   H25       1.0  0.24400  0.25600  0.19100  1.0000
  O   O26       1.0  0.33910  0.16615  0.13062  1.0000
  H   H26       1.0  0.33100  0.20400  0.15300  1.0000
  H   H27       1.0  0.35700  0.28000  0.07800  1.0000
  O   O27       1.0  0.38750  0.30604  0.10016  1.0000
  H   H28       1.0  0.14400  0.38100  0.26000  1.0000
  O   O28       1.0  0.13610  0.35360  0.22625  1.0000
  H   H29       1.0  0.34800  0.00300  0.08020  1.0000
  O   O29       1.0  0.35190  0.01050  0.12240  1.0000
  O   O30       1.0  0.88550  0.39270  0.00320  1.0000
  H   H30       1.0  0.89200  0.43510  0.99400  1.0000
  H   H31       1.0  0.10820  0.00130  0.27730  1.0000
  O   O31       1.0  0.08630  0.03940  0.27251  1.0000
  O   O32       1.0  0.29280  0.63080  0.13190  1.0000
  H   H32       1.0  0.27300  0.63500  0.16700  1.0000
  H   H33       1.0  0.74400  0.24400  0.69100  1.0000
  O   O33       1.0  0.76124  0.20943  0.66870  1.0000
  H   H34       1.0  0.83100  0.29600  0.65300  1.0000
  O   O34       1.0  0.83910  0.33385  0.63062  1.0000
  O   O35       1.0  0.88750  0.19396  0.60016  1.0000
  H   H35       1.0  0.85700  0.22000  0.57800  1.0000
  O   O36       1.0  0.63610  0.14640  0.72625  1.0000
  H   H36       1.0  0.64400  0.11900  0.76000  1.0000
  H   H37       1.0  0.84800  0.49700  0.58020  1.0000
  O   O37       1.0  0.85190  0.48950  0.62240  1.0000
  O   O38       1.0  0.38550  0.10730  0.50320  1.0000
  H   H38       1.0  0.39200  0.06490  0.49400  1.0000
  O   O39       1.0  0.58630  0.46060  0.77251  1.0000
  H   H39       1.0  0.60820  0.49870  0.77730  1.0000
  O   O40       1.0  0.79280  0.86920  0.63190  1.0000
  H   H40       1.0  0.77300  0.86500  0.66700  1.0000
  O   O41       1.0  0.26124  0.70943  0.66870  1.0000
  H   H41       1.0  0.24400  0.74400  0.69100  1.0000
  H   H42       1.0  0.33100  0.79600  0.65300  1.0000
  O   O42       1.0  0.33910  0.83385  0.63062  1.0000
  H   H43       1.0  0.35700  0.72000  0.57800  1.0000
  O   O43       1.0  0.38750  0.69396  0.60016  1.0000
  H   H44       1.0  0.14400  0.61900  0.76000  1.0000
  O   O44       1.0  0.13610  0.64640  0.72625  1.0000
  O   O45       1.0  0.35190  0.98950  0.62240  1.0000
  H   H45       1.0  0.34800  0.99700  0.58020  1.0000
  H   H46       1.0  0.89200  0.56490  0.49400  1.0000
  O   O46       1.0  0.88550  0.60730  0.50320  1.0000
  O   O47       1.0  0.08630  0.96060  0.77251  1.0000
  H   H47       1.0  0.10820  0.99870  0.77730  1.0000
  O   O48       1.0  0.29280  0.36920  0.63190  1.0000
  H   H48       1.0  0.27300  0.36500  0.66700  1.0000
  H   H49       1.0  0.25600  0.24400  0.80900  1.0000
  O   O49       1.0  0.23876  0.20943  0.83130  1.0000
  O   O50       1.0  0.16090  0.33385  0.86938  1.0000
  H   H50       1.0  0.16900  0.29600  0.84700  1.0000
  H   H51       1.0  0.14300  0.22000  0.92200  1.0000
  O   O51       1.0  0.11250  0.19396  0.89984  1.0000
  H   H52       1.0  0.35600  0.11900  0.74000  1.0000
  O   O52       1.0  0.36390  0.14640  0.77375  1.0000
  H   H53       1.0  0.15200  0.49700  0.91980  1.0000
  O   O53       1.0  0.14810  0.48950  0.87760  1.0000
  O   O54       1.0  0.61450  0.10730  0.99680  1.0000
  H   H54       1.0  0.60800  0.06490  0.00600  1.0000
  O   O55       1.0  0.41370  0.46060  0.72749  1.0000
  H   H55       1.0  0.39180  0.49870  0.72270  1.0000
  O   O56       1.0  0.20720  0.86920  0.86810  1.0000
  H   H56       1.0  0.22700  0.86500  0.83300  1.0000
  H   H57       1.0  0.75600  0.74400  0.80900  1.0000
  O   O57       1.0  0.73876  0.70943  0.83130  1.0000
  H   H58       1.0  0.66900  0.79600  0.84700  1.0000
  O   O58       1.0  0.66090  0.83385  0.86938  1.0000
  O   O59       1.0  0.61250  0.69396  0.89984  1.0000
  H   H59       1.0  0.64300  0.72000  0.92200  1.0000
  O   O60       1.0  0.86390  0.64640  0.77375  1.0000
  H   H60       1.0  0.85600  0.61900  0.74000  1.0000
  O   O61       1.0  0.64810  0.98950  0.87760  1.0000
  H   H61       1.0  0.65200  0.99700  0.91980  1.0000
  O   O62       1.0  0.11450  0.60730  0.99680  1.0000
  H   H62       1.0  0.10800  0.56490  0.00600  1.0000
  O   O63       1.0  0.91370  0.96060  0.72749  1.0000
  H   H63       1.0  0.89180  0.99870  0.72270  1.0000
  H   H64       1.0  0.72700  0.36500  0.83300  1.0000
  O   O64       1.0  0.70720  0.36920  0.86810  1.0000
  V   V1        1.0  0.18594  0.86882  0.37008  1.0000
  V   V2        1.0  0.25087  0.68617  0.33134  1.0000
  V   V3        1.0  0.33677  0.82425  0.34601  1.0000
  V   V4        1.0  0.08543  0.70778  0.41962  1.0000
  V   V5        1.0  0.08254  0.85610  0.48030  1.0000
  V   V6        1.0  0.18192  0.57789  0.42145  1.0000
  O   O65       1.0  0.42910  0.63526  0.30430  1.0000
  O   O66       1.0  0.33569  0.50800  0.44676  1.0000
  O   O67       1.0  0.28560  0.03071  0.38797  1.0000
  O   O68       1.0  0.49356  0.92093  0.47718  1.0000
  O   O69       1.0  0.27250  0.96586  0.49407  1.0000
  O   O70       1.0  0.39638  0.62114  0.42023  1.0000
  O   O71       1.0  0.43640  0.74357  0.49667  1.0000
  O   O72       1.0  0.38269  0.96521  0.43617  1.0000
  O   O73       1.0  0.18010  0.04515  0.44822  1.0000
  O   O74       1.0  0.27330  0.60280  0.38838  1.0000
  O   O75       1.0  0.47106  0.72154  0.38429  1.0000
  O   O76       1.0  0.41753  0.83821  0.41377  1.0000
  O   O77       1.0  0.34738  0.71987  0.35188  1.0000
  O   O78       1.0  0.16050  0.91570  0.45432  1.0000
  O   O79       1.0  0.28350  0.89984  0.38842  1.0000
  O   O80       1.0  0.53714  0.80369  0.45145  1.0000
  O   O81       1.0  0.36120  0.53171  0.33390  1.0000
  O   O82       1.0  0.38810  0.87683  0.52590  1.0000
  B   B1        1.0  0.46500  0.77590  0.43610  1.0000
  B   B2        1.0  0.34180  0.56530  0.39860  1.0000
  B   B3        1.0  0.19360  0.97930  0.48850  1.0000
  B   B4        1.0  0.30770  0.96510  0.42650  1.0000
  B   B5        1.0  0.40080  0.56920  0.28970  1.0000
  B   B6        1.0  0.41150  0.67530  0.36560  1.0000
  B   B7        1.0  0.22550  0.06770  0.40130  1.0000
  B   B8        1.0  0.54550  0.87340  0.47450  1.0000
  B   B9        1.0  0.42000  0.90150  0.46290  1.0000
  V   V7        1.0  0.68594  0.36882  0.37008  1.0000
  V   V8        1.0  0.75087  0.18617  0.33134  1.0000
  V   V9        1.0  0.83677  0.32425  0.34601  1.0000
  V   V10       1.0  0.58543  0.20778  0.41962  1.0000
  V   V11       1.0  0.58254  0.35610  0.48030  1.0000
  V   V12       1.0  0.68192  0.07789  0.42145  1.0000
  O   O83       1.0  0.92910  0.13526  0.30430  1.0000
  O   O84       1.0  0.83569  0.00800  0.44676  1.0000
  O   O85       1.0  0.78560  0.53071  0.38797  1.0000
  O   O86       1.0  0.99356  0.42093  0.47718  1.0000
  O   O87       1.0  0.77250  0.46586  0.49407  1.0000
  O   O88       1.0  0.89638  0.12114  0.42023  1.0000
  O   O89       1.0  0.93640  0.24357  0.49667  1.0000
  O   O90       1.0  0.88269  0.46521  0.43617  1.0000
  O   O91       1.0  0.68010  0.54515  0.44822  1.0000
  O   O92       1.0  0.77330  0.10280  0.38838  1.0000
  O   O93       1.0  0.97106  0.22154  0.38429  1.0000
  O   O94       1.0  0.91753  0.33821  0.41377  1.0000
  O   O95       1.0  0.84738  0.21987  0.35188  1.0000
  O   O96       1.0  0.66050  0.41570  0.45432  1.0000
  O   O97       1.0  0.78350  0.39984  0.38842  1.0000
  O   O98       1.0  0.03714  0.30369  0.45145  1.0000
  O   O99       1.0  0.86120  0.03171  0.33390  1.0000
  O   O100      1.0  0.88810  0.37683  0.52590  1.0000
  B   B10       1.0  0.96500  0.27590  0.43610  1.0000
  B   B11       1.0  0.84180  0.06530  0.39860  1.0000
  B   B12       1.0  0.69360  0.47930  0.48850  1.0000
  B   B13       1.0  0.80770  0.46510  0.42650  1.0000
  B   B14       1.0  0.90080  0.06920  0.28970  1.0000
  B   B15       1.0  0.91150  0.17530  0.36560  1.0000
  B   B16       1.0  0.72550  0.56770  0.40130  1.0000
  B   B17       1.0  0.04550  0.37340  0.47450  1.0000
  B   B18       1.0  0.92000  0.40150  0.46290  1.0000
  V   V13       1.0  0.81406  0.86882  0.12992  1.0000
  V   V14       1.0  0.74913  0.68617  0.16866  1.0000
  V   V15       1.0  0.66323  0.82425  0.15399  1.0000
  V   V16       1.0  0.91457  0.70778  0.08038  1.0000
  V   V17       1.0  0.91746  0.85610  0.01970  1.0000
  V   V18       1.0  0.81808  0.57789  0.07855  1.0000
  O   O101      1.0  0.57090  0.63526  0.19570  1.0000
  O   O102      1.0  0.66431  0.50800  0.05324  1.0000
  O   O103      1.0  0.71440  0.03071  0.11203  1.0000
  O   O104      1.0  0.50644  0.92093  0.02282  1.0000
  O   O105      1.0  0.72750  0.96586  0.00593  1.0000
  O   O106      1.0  0.60362  0.62114  0.07977  1.0000
  O   O107      1.0  0.56360  0.74357  0.00333  1.0000
  O   O108      1.0  0.61731  0.96521  0.06383  1.0000
  O   O109      1.0  0.81990  0.04515  0.05178  1.0000
  O   O110      1.0  0.72670  0.60280  0.11162  1.0000
  O   O111      1.0  0.52894  0.72154  0.11571  1.0000
  O   O112      1.0  0.58247  0.83821  0.08623  1.0000
  O   O113      1.0  0.65262  0.71987  0.14812  1.0000
  O   O114      1.0  0.83950  0.91570  0.04568  1.0000
  O   O115      1.0  0.71650  0.89984  0.11158  1.0000
  O   O116      1.0  0.46286  0.80369  0.04855  1.0000
  O   O117      1.0  0.63880  0.53171  0.16610  1.0000
  O   O118      1.0  0.61190  0.87683  0.97410  1.0000
  B   B19       1.0  0.53500  0.77590  0.06390  1.0000
  B   B20       1.0  0.65820  0.56530  0.10140  1.0000
  B   B21       1.0  0.80640  0.97930  0.01150  1.0000
  B   B22       1.0  0.69230  0.96510  0.07350  1.0000
  B   B23       1.0  0.59920  0.56920  0.21030  1.0000
  B   B24       1.0  0.58850  0.67530  0.13440  1.0000
  B   B25       1.0  0.77450  0.06770  0.09870  1.0000
  B   B26       1.0  0.45450  0.87340  0.02550  1.0000
  B   B27       1.0  0.58000  0.90150  0.03710  1.0000
  V   V19       1.0  0.31406  0.36882  0.12992  1.0000
  V   V20       1.0  0.24913  0.18617  0.16866  1.0000
  V   V21       1.0  0.16323  0.32425  0.15399  1.0000
  V   V22       1.0  0.41457  0.20778  0.08038  1.0000
  V   V23       1.0  0.41746  0.35610  0.01970  1.0000
  V   V24       1.0  0.31808  0.07789  0.07855  1.0000
  O   O119      1.0  0.07090  0.13526  0.19570  1.0000
  O   O120      1.0  0.16431  0.00800  0.05324  1.0000
  O   O121      1.0  0.21440  0.53071  0.11203  1.0000
  O   O122      1.0  0.00644  0.42093  0.02282  1.0000
  O   O123      1.0  0.22750  0.46586  0.00593  1.0000
  O   O124      1.0  0.10362  0.12114  0.07977  1.0000
  O   O125      1.0  0.06360  0.24357  0.00333  1.0000
  O   O126      1.0  0.11731  0.46521  0.06383  1.0000
  O   O127      1.0  0.31990  0.54515  0.05178  1.0000
  O   O128      1.0  0.22670  0.10280  0.11162  1.0000
  O   O129      1.0  0.02894  0.22154  0.11571  1.0000
  O   O130      1.0  0.08247  0.33821  0.08623  1.0000
  O   O131      1.0  0.15262  0.21987  0.14812  1.0000
  O   O132      1.0  0.33950  0.41570  0.04568  1.0000
  O   O133      1.0  0.21650  0.39984  0.11158  1.0000
  O   O134      1.0  0.96286  0.30369  0.04855  1.0000
  O   O135      1.0  0.13880  0.03171  0.16610  1.0000
  O   O136      1.0  0.11190  0.37683  0.97410  1.0000
  B   B28       1.0  0.03500  0.27590  0.06390  1.0000
  B   B29       1.0  0.15820  0.06530  0.10140  1.0000
  B   B30       1.0  0.30640  0.47930  0.01150  1.0000
  B   B31       1.0  0.19230  0.46510  0.07350  1.0000
  B   B32       1.0  0.09920  0.06920  0.21030  1.0000
  B   B33       1.0  0.08850  0.17530  0.13440  1.0000
  B   B34       1.0  0.27450  0.56770  0.09870  1.0000
  B   B35       1.0  0.95450  0.37340  0.02550  1.0000
  B   B36       1.0  0.08000  0.40150  0.03710  1.0000
  V   V25       1.0  0.81406  0.13118  0.62992  1.0000
  V   V26       1.0  0.74913  0.31383  0.66866  1.0000
  V   V27       1.0  0.66323  0.17575  0.65399  1.0000
  V   V28       1.0  0.91457  0.29222  0.58038  1.0000
  V   V29       1.0  0.91746  0.14390  0.51970  1.0000
  V   V30       1.0  0.81808  0.42211  0.57855  1.0000
  O   O137      1.0  0.57090  0.36474  0.69570  1.0000
  O   O138      1.0  0.66431  0.49200  0.55324  1.0000
  O   O139      1.0  0.71440  0.96929  0.61203  1.0000
  O   O140      1.0  0.50644  0.07907  0.52282  1.0000
  O   O141      1.0  0.72750  0.03414  0.50593  1.0000
  O   O142      1.0  0.60362  0.37886  0.57977  1.0000
  O   O143      1.0  0.56360  0.25643  0.50333  1.0000
  O   O144      1.0  0.61731  0.03479  0.56383  1.0000
  O   O145      1.0  0.81990  0.95485  0.55178  1.0000
  O   O146      1.0  0.72670  0.39720  0.61162  1.0000
  O   O147      1.0  0.52894  0.27846  0.61571  1.0000
  O   O148      1.0  0.58247  0.16179  0.58623  1.0000
  O   O149      1.0  0.65262  0.28013  0.64812  1.0000
  O   O150      1.0  0.83950  0.08430  0.54568  1.0000
  O   O151      1.0  0.71650  0.10016  0.61158  1.0000
  O   O152      1.0  0.46286  0.19631  0.54855  1.0000
  O   O153      1.0  0.63880  0.46829  0.66610  1.0000
  O   O154      1.0  0.61190  0.12317  0.47410  1.0000
  B   B37       1.0  0.53500  0.22410  0.56390  1.0000
  B   B38       1.0  0.65820  0.43470  0.60140  1.0000
  B   B39       1.0  0.80640  0.02070  0.51150  1.0000
  B   B40       1.0  0.69230  0.03490  0.57350  1.0000
  B   B41       1.0  0.59920  0.43080  0.71030  1.0000
  B   B42       1.0  0.58850  0.32470  0.63440  1.0000
  B   B43       1.0  0.77450  0.93230  0.59870  1.0000
  B   B44       1.0  0.45450  0.12660  0.52550  1.0000
  B   B45       1.0  0.58000  0.09850  0.53710  1.0000
  V   V31       1.0  0.31406  0.63118  0.62992  1.0000
  V   V32       1.0  0.24913  0.81383  0.66866  1.0000
  V   V33       1.0  0.16323  0.67575  0.65399  1.0000
  V   V34       1.0  0.41457  0.79222  0.58038  1.0000
  V   V35       1.0  0.41746  0.64390  0.51970  1.0000
  V   V36       1.0  0.31808  0.92211  0.57855  1.0000
  O   O155      1.0  0.07090  0.86474  0.69570  1.0000
  O   O156      1.0  0.16431  0.99200  0.55324  1.0000
  O   O157      1.0  0.21440  0.46929  0.61203  1.0000
  O   O158      1.0  0.00644  0.57907  0.52282  1.0000
  O   O159      1.0  0.22750  0.53414  0.50593  1.0000
  O   O160      1.0  0.10362  0.87886  0.57977  1.0000
  O   O161      1.0  0.06360  0.75643  0.50333  1.0000
  O   O162      1.0  0.11731  0.53479  0.56383  1.0000
  O   O163      1.0  0.31990  0.45485  0.55178  1.0000
  O   O164      1.0  0.22670  0.89720  0.61162  1.0000
  O   O165      1.0  0.02894  0.77846  0.61571  1.0000
  O   O166      1.0  0.08247  0.66179  0.58623  1.0000
  O   O167      1.0  0.15262  0.78013  0.64812  1.0000
  O   O168      1.0  0.33950  0.58430  0.54568  1.0000
  O   O169      1.0  0.21650  0.60016  0.61158  1.0000
  O   O170      1.0  0.96286  0.69631  0.54855  1.0000
  O   O171      1.0  0.13880  0.96829  0.66610  1.0000
  O   O172      1.0  0.11190  0.62317  0.47410  1.0000
  B   B46       1.0  0.03500  0.72410  0.56390  1.0000
  B   B47       1.0  0.15820  0.93470  0.60140  1.0000
  B   B48       1.0  0.30640  0.52070  0.51150  1.0000
  B   B49       1.0  0.19230  0.53490  0.57350  1.0000
  B   B50       1.0  0.09920  0.93080  0.71030  1.0000
  B   B51       1.0  0.08850  0.82470  0.63440  1.0000
  B   B52       1.0  0.27450  0.43230  0.59870  1.0000
  B   B53       1.0  0.95450  0.62660  0.52550  1.0000
  B   B54       1.0  0.08000  0.59850  0.53710  1.0000
  V   V37       1.0  0.18594  0.13118  0.87008  1.0000
  V   V38       1.0  0.25087  0.31383  0.83134  1.0000
  V   V39       1.0  0.33677  0.17575  0.84601  1.0000
  V   V40       1.0  0.08543  0.29222  0.91962  1.0000
  V   V41       1.0  0.08254  0.14390  0.98030  1.0000
  V   V42       1.0  0.18192  0.42211  0.92145  1.0000
  O   O173      1.0  0.42910  0.36474  0.80430  1.0000
  O   O174      1.0  0.33569  0.49200  0.94676  1.0000
  O   O175      1.0  0.28560  0.96929  0.88797  1.0000
  O   O176      1.0  0.49356  0.07907  0.97718  1.0000
  O   O177      1.0  0.27250  0.03414  0.99407  1.0000
  O   O178      1.0  0.39638  0.37886  0.92023  1.0000
  O   O179      1.0  0.43640  0.25643  0.99667  1.0000
  O   O180      1.0  0.38269  0.03479  0.93617  1.0000
  O   O181      1.0  0.18010  0.95485  0.94822  1.0000
  O   O182      1.0  0.27330  0.39720  0.88838  1.0000
  O   O183      1.0  0.47106  0.27846  0.88429  1.0000
  O   O184      1.0  0.41753  0.16179  0.91377  1.0000
  O   O185      1.0  0.34738  0.28013  0.85188  1.0000
  O   O186      1.0  0.16050  0.08430  0.95432  1.0000
  O   O187      1.0  0.28350  0.10016  0.88842  1.0000
  O   O188      1.0  0.53714  0.19631  0.95145  1.0000
  O   O189      1.0  0.36120  0.46829  0.83390  1.0000
  O   O190      1.0  0.38810  0.12317  0.02590  1.0000
  B   B55       1.0  0.46500  0.22410  0.93610  1.0000
  B   B56       1.0  0.34180  0.43470  0.89860  1.0000
  B   B57       1.0  0.19360  0.02070  0.98850  1.0000
  B   B58       1.0  0.30770  0.03490  0.92650  1.0000
  B   B59       1.0  0.40080  0.43080  0.78970  1.0000
  B   B60       1.0  0.41150  0.32470  0.86560  1.0000
  B   B61       1.0  0.22550  0.93230  0.90130  1.0000
  B   B62       1.0  0.54550  0.12660  0.97450  1.0000
  B   B63       1.0  0.42000  0.09850  0.96290  1.0000
  V   V43       1.0  0.68594  0.63118  0.87008  1.0000
  V   V44       1.0  0.75087  0.81383  0.83134  1.0000
  V   V45       1.0  0.83677  0.67575  0.84601  1.0000
  V   V46       1.0  0.58543  0.79222  0.91962  1.0000
  V   V47       1.0  0.58254  0.64390  0.98030  1.0000
  V   V48       1.0  0.68192  0.92211  0.92145  1.0000
  O   O191      1.0  0.92910  0.86474  0.80430  1.0000
  O   O192      1.0  0.83569  0.99200  0.94676  1.0000
  O   O193      1.0  0.78560  0.46929  0.88797  1.0000
  O   O194      1.0  0.99356  0.57907  0.97718  1.0000
  O   O195      1.0  0.77250  0.53414  0.99407  1.0000
  O   O196      1.0  0.89638  0.87886  0.92023  1.0000
  O   O197      1.0  0.93640  0.75643  0.99667  1.0000
  O   O198      1.0  0.88269  0.53479  0.93617  1.0000
  O   O199      1.0  0.68010  0.45485  0.94822  1.0000
  O   O200      1.0  0.77330  0.89720  0.88838  1.0000
  O   O201      1.0  0.97106  0.77846  0.88429  1.0000
  O   O202      1.0  0.91753  0.66179  0.91377  1.0000
  O   O203      1.0  0.84738  0.78013  0.85188  1.0000
  O   O204      1.0  0.66050  0.58430  0.95432  1.0000
  O   O205      1.0  0.78350  0.60016  0.88842  1.0000
  O   O206      1.0  0.03714  0.69631  0.95145  1.0000
  O   O207      1.0  0.86120  0.96829  0.83390  1.0000
  O   O208      1.0  0.88810  0.62317  0.02590  1.0000
  B   B64       1.0  0.96500  0.72410  0.93610  1.0000
  B   B65       1.0  0.84180  0.93470  0.89860  1.0000
  B   B66       1.0  0.69360  0.52070  0.98850  1.0000
  B   B67       1.0  0.80770  0.53490  0.92650  1.0000
  B   B68       1.0  0.90080  0.93080  0.78970  1.0000
  B   B69       1.0  0.91150  0.82470  0.86560  1.0000
  B   B70       1.0  0.72550  0.43230  0.90130  1.0000
  B   B71       1.0  0.04550  0.62660  0.97450  1.0000
  B   B72       1.0  0.92000  0.59850  0.96290  1.0000
