data_image0
_chemical_formula_structural       N2O2HO2CHCHCHC4HCHCHC3N2O2HO2CHCHCHC4HCHCHC3N2O2HO2CHCHCHC4HCHCHC3N2O2HO2CHCHCHC4HCHCHC3O6PO6PO4W6O22Ni2W3OW9O22Ni2O3W6
_chemical_formula_sum              "N8 O80 H28 C48 P2 W24 Ni4"
_cell_length_a       10.9156
_cell_length_b       16.1295
_cell_length_c       22.701
_cell_angle_alpha    90
_cell_angle_beta     94.523
_cell_angle_gamma    90

_space_group_name_H-M_alt    "P 1"
_space_group_IT_number       1

loop_
  _space_group_symop_operation_xyz
  'x, y, z'

loop_
  _atom_site_type_symbol
  _atom_site_label
  _atom_site_symmetry_multiplicity
  _atom_site_fract_x
  _atom_site_fract_y
  _atom_site_fract_z
  _atom_site_occupancy
  N   N1        1.0  0.16170  0.21010  0.22910  1.0000
  N   N2        1.0  0.34270  0.26430  0.29800  1.0000
  O   O1        1.0  0.36270  0.39100  0.14560  1.0000
  O   O2        1.0  0.20020  0.42030  0.08480  1.0000
  H   H1        1.0  0.24700  0.45590  0.07390  1.0000
  O   O3        1.0  0.29570  0.54320  0.23670  1.0000
  O   O4        1.0  0.13780  0.46020  0.21330  1.0000
  C   C1        1.0  0.07200  0.17170  0.19460  1.0000
  H   H2        1.0  0.03850  0.12240  0.20710  1.0000
  C   C2        1.0  0.03010  0.20600  0.14080  1.0000
  H   H3        1.0  0.96190  0.18320  0.11960  1.0000
  C   C3        1.0  0.08830  0.27330  0.11840  1.0000
  H   H4        1.0  0.06560  0.29250  0.08050  1.0000
  C   C4        1.0  0.18230  0.31240  0.15360  1.0000
  C   C5        1.0  0.20960  0.28250  0.21060  1.0000
  C   C6        1.0  0.25340  0.37940  0.12670  1.0000
  C   C7        1.0  0.41970  0.28820  0.34540  1.0000
  H   H5        1.0  0.45460  0.24840  0.37120  1.0000
  C   C8        1.0  0.44510  0.36830  0.35490  1.0000
  H   H6        1.0  0.50120  0.38380  0.38590  1.0000
  C   C9        1.0  0.38870  0.42780  0.31910  1.0000
  H   H7        1.0  0.40400  0.48350  0.32710  1.0000
  C   C10       1.0  0.30740  0.40500  0.27030  1.0000
  C   C11       1.0  0.29090  0.32100  0.25990  1.0000
  C   C12       1.0  0.24100  0.47530  0.23660  1.0000
  N   N3        1.0  0.33830  0.71010  0.27090  1.0000
  N   N4        1.0  0.15730  0.76430  0.20200  1.0000
  O   O5        1.0  0.13730  0.89100  0.35440  1.0000
  O   O6        1.0  0.29980  0.92030  0.41520  1.0000
  H   H8        1.0  0.25300  0.95590  0.42610  1.0000
  O   O7        1.0  0.20430  0.04320  0.26330  1.0000
  O   O8        1.0  0.36220  0.96020  0.28670  1.0000
  C   C13       1.0  0.42800  0.67170  0.30540  1.0000
  H   H9        1.0  0.46150  0.62240  0.29290  1.0000
  C   C14       1.0  0.46990  0.70600  0.35920  1.0000
  H   H10       1.0  0.53810  0.68320  0.38040  1.0000
  C   C15       1.0  0.41170  0.77330  0.38160  1.0000
  H   H11       1.0  0.43440  0.79250  0.41950  1.0000
  C   C16       1.0  0.31770  0.81240  0.34640  1.0000
  C   C17       1.0  0.29040  0.78250  0.28940  1.0000
  C   C18       1.0  0.24660  0.87940  0.37330  1.0000
  C   C19       1.0  0.08030  0.78820  0.15460  1.0000
  H   H12       1.0  0.04540  0.74840  0.12880  1.0000
  C   C20       1.0  0.05490  0.86830  0.14510  1.0000
  H   H13       1.0  0.99880  0.88380  0.11410  1.0000
  C   C21       1.0  0.11130  0.92780  0.18090  1.0000
  H   H14       1.0  0.09600  0.98350  0.17290  1.0000
  C   C22       1.0  0.19260  0.90500  0.22970  1.0000
  C   C23       1.0  0.20910  0.82100  0.24010  1.0000
  C   C24       1.0  0.25900  0.97530  0.26340  1.0000
  N   N5        1.0  0.83830  0.78990  0.77090  1.0000
  N   N6        1.0  0.65730  0.73570  0.70200  1.0000
  O   O9        1.0  0.63730  0.60900  0.85440  1.0000
  O   O10       1.0  0.79980  0.57970  0.91520  1.0000
  H   H15       1.0  0.75300  0.54410  0.92610  1.0000
  O   O11       1.0  0.70430  0.45680  0.76330  1.0000
  O   O12       1.0  0.86220  0.53980  0.78670  1.0000
  C   C25       1.0  0.92800  0.82830  0.80540  1.0000
  H   H16       1.0  0.96150  0.87760  0.79290  1.0000
  C   C26       1.0  0.96990  0.79400  0.85920  1.0000
  H   H17       1.0  0.03810  0.81680  0.88040  1.0000
  C   C27       1.0  0.91170  0.72670  0.88160  1.0000
  H   H18       1.0  0.93440  0.70750  0.91950  1.0000
  C   C28       1.0  0.81770  0.68760  0.84640  1.0000
  C   C29       1.0  0.79040  0.71750  0.78940  1.0000
  C   C30       1.0  0.74660  0.62060  0.87330  1.0000
  C   C31       1.0  0.58030  0.71180  0.65460  1.0000
  H   H19       1.0  0.54540  0.75160  0.62880  1.0000
  C   C32       1.0  0.55490  0.63170  0.64510  1.0000
  H   H20       1.0  0.49880  0.61620  0.61410  1.0000
  C   C33       1.0  0.61130  0.57220  0.68090  1.0000
  H   H21       1.0  0.59600  0.51650  0.67290  1.0000
  C   C34       1.0  0.69260  0.59500  0.72970  1.0000
  C   C35       1.0  0.70910  0.67900  0.74010  1.0000
  C   C36       1.0  0.75900  0.52470  0.76340  1.0000
  N   N7        1.0  0.66170  0.28990  0.72910  1.0000
  N   N8        1.0  0.84270  0.23570  0.79800  1.0000
  O   O13       1.0  0.86270  0.10900  0.64560  1.0000
  O   O14       1.0  0.70020  0.07970  0.58480  1.0000
  H   H22       1.0  0.74700  0.04410  0.57390  1.0000
  O   O15       1.0  0.79570  0.95680  0.73670  1.0000
  O   O16       1.0  0.63780  0.03980  0.71330  1.0000
  C   C37       1.0  0.57200  0.32830  0.69460  1.0000
  H   H23       1.0  0.53850  0.37760  0.70710  1.0000
  C   C38       1.0  0.53010  0.29400  0.64080  1.0000
  H   H24       1.0  0.46190  0.31680  0.61960  1.0000
  C   C39       1.0  0.58830  0.22670  0.61840  1.0000
  H   H25       1.0  0.56560  0.20750  0.58050  1.0000
  C   C40       1.0  0.68230  0.18760  0.65360  1.0000
  C   C41       1.0  0.70960  0.21750  0.71060  1.0000
  C   C42       1.0  0.75340  0.12060  0.62670  1.0000
  C   C43       1.0  0.91970  0.21180  0.84540  1.0000
  H   H26       1.0  0.95460  0.25160  0.87120  1.0000
  C   C44       1.0  0.94510  0.13170  0.85490  1.0000
  H   H27       1.0  0.00120  0.11620  0.88590  1.0000
  C   C45       1.0  0.88870  0.07220  0.81910  1.0000
  H   H28       1.0  0.90400  0.01650  0.82710  1.0000
  C   C46       1.0  0.80740  0.09500  0.77030  1.0000
  C   C47       1.0  0.79090  0.17900  0.75990  1.0000
  C   C48       1.0  0.74100  0.02470  0.73660  1.0000
  O   O17       1.0  0.37380  0.98580  0.98400  1.0000
  O   O18       1.0  0.46390  0.99790  0.93570  1.0000
  O   O19       1.0  0.46680  0.91240  0.02520  1.0000
  O   O20       1.0  0.42070  0.06060  0.03070  1.0000
  O   O21       1.0  0.62620  0.01420  0.01600  1.0000
  O   O22       1.0  0.53610  0.00210  0.06430  1.0000
  P   P1        1.0  0.50000  0.00000  0.00000  1.0000
  O   O23       1.0  0.53320  0.08760  0.97480  1.0000
  O   O24       1.0  0.57930  0.93940  0.96930  1.0000
  O   O25       1.0  0.03320  0.41240  0.47480  1.0000
  O   O26       1.0  0.07930  0.56060  0.46930  1.0000
  O   O27       1.0  0.87380  0.51420  0.48400  1.0000
  O   O28       1.0  0.96390  0.50210  0.43570  1.0000
  P   P2        1.0  0.00000  0.50000  0.50000  1.0000
  O   O29       1.0  0.96680  0.58760  0.52520  1.0000
  O   O30       1.0  0.92070  0.43940  0.53070  1.0000
  O   O31       1.0  0.12620  0.48580  0.51600  1.0000
  O   O32       1.0  0.03610  0.49790  0.56430  1.0000
  W   W1        1.0  0.73833  0.02287  0.11514  1.0000
  W   W2        1.0  0.43524  0.09321  0.13606  1.0000
  W   W3        1.0  0.19618  0.06617  0.02243  1.0000
  W   W4        1.0  0.49845  0.87720  0.12983  1.0000
  W   W5        1.0  0.26374  0.85045  0.01340  1.0000
  W   W6        1.0  0.56870  0.78485  0.99408  1.0000
  O   O33       1.0  0.39270  0.91490  0.85650  1.0000
  O   O34       1.0  0.34380  0.07230  0.86050  1.0000
  O   O35       1.0  0.76460  0.11510  0.06580  1.0000
  O   O36       1.0  0.81470  0.95730  0.05960  1.0000
  O   O37       1.0  0.60730  0.08510  0.14350  1.0000
  O   O38       1.0  0.56420  0.02010  0.84480  1.0000
  O   O39       1.0  0.65620  0.92770  0.13950  1.0000
  O   O40       1.0  0.23540  0.88490  0.93420  1.0000
  O   O41       1.0  0.18530  0.04270  0.94040  1.0000
  O   O42       1.0  0.43580  0.97990  0.15520  1.0000
  O   O43       1.0  0.44610  0.18570  0.08740  1.0000
  O   O44       1.0  0.55390  0.81430  0.91260  1.0000
  O   O45       1.0  0.27520  0.07800  0.09960  1.0000
  O   O46       1.0  0.72610  0.83420  0.99620  1.0000
  O   O47       1.0  0.18910  0.95100  0.03500  1.0000
  O   O48       1.0  0.81090  0.04900  0.96500  1.0000
  O   O49       1.0  0.43150  0.19530  0.92510  1.0000
  O   O50       1.0  0.65410  0.14890  0.90970  1.0000
  O   O51       1.0  0.56850  0.80470  0.07490  1.0000
  O   O52       1.0  0.34590  0.85110  0.09030  1.0000
  O   O53       1.0  0.39590  0.78430  0.99060  1.0000
  O   O54       1.0  0.60410  0.21570  0.00940  1.0000
  Ni  Ni1       1.0  0.27344  0.15053  0.28837  1.0000
  Ni  Ni2       1.0  0.72656  0.84947  0.71163  1.0000
  W   W7        1.0  0.23833  0.47713  0.61514  1.0000
  W   W8        1.0  0.93524  0.40679  0.63606  1.0000
  W   W9        1.0  0.69618  0.43383  0.52243  1.0000
  O   O55       1.0  0.72480  0.92200  0.90040  1.0000
  W   W10       1.0  0.99845  0.62280  0.62983  1.0000
  W   W11       1.0  0.76374  0.64955  0.51340  1.0000
  W   W12       1.0  0.06870  0.71515  0.49408  1.0000
  W   W13       1.0  0.76167  0.52287  0.38486  1.0000
  W   W14       1.0  0.06476  0.59321  0.36394  1.0000
  W   W15       1.0  0.30382  0.56617  0.47757  1.0000
  W   W16       1.0  0.00155  0.37720  0.37017  1.0000
  W   W17       1.0  0.23626  0.35045  0.48660  1.0000
  W   W18       1.0  0.93130  0.28485  0.50592  1.0000
  O   O56       1.0  0.27390  0.16580  0.00380  1.0000
  O   O57       1.0  0.10730  0.41490  0.64350  1.0000
  O   O58       1.0  0.15620  0.57230  0.63950  1.0000
  O   O59       1.0  0.73540  0.61510  0.43420  1.0000
  O   O60       1.0  0.89270  0.58510  0.35650  1.0000
  O   O61       1.0  0.68530  0.45730  0.44040  1.0000
  O   O62       1.0  0.84380  0.42770  0.36050  1.0000
  O   O63       1.0  0.26460  0.38490  0.56580  1.0000
  O   O64       1.0  0.31470  0.54270  0.55960  1.0000
  O   O65       1.0  0.06420  0.47990  0.34480  1.0000
  O   O66       1.0  0.93580  0.52010  0.65520  1.0000
  O   O67       1.0  0.94610  0.31430  0.58740  1.0000
  O   O68       1.0  0.22480  0.57800  0.40040  1.0000
  O   O69       1.0  0.77390  0.33420  0.50380  1.0000
  O   O70       1.0  0.31090  0.45100  0.46500  1.0000
  O   O71       1.0  0.68910  0.54900  0.53500  1.0000
  O   O72       1.0  0.06850  0.69530  0.57490  1.0000
  O   O73       1.0  0.84590  0.64890  0.59030  1.0000
  O   O74       1.0  0.93150  0.30470  0.42510  1.0000
  O   O75       1.0  0.15410  0.35110  0.40970  1.0000
  O   O76       1.0  0.10410  0.28430  0.50940  1.0000
  O   O77       1.0  0.89590  0.71570  0.49060  1.0000
  Ni  Ni3       1.0  0.22656  0.65053  0.21163  1.0000
  Ni  Ni4       1.0  0.77344  0.34947  0.78837  1.0000
  O   O78       1.0  0.05390  0.68570  0.41260  1.0000
  O   O79       1.0  0.77520  0.42200  0.59960  1.0000
  O   O80       1.0  0.22610  0.66580  0.49620  1.0000
  W   W19       1.0  0.26167  0.97713  0.88486  1.0000
  W   W20       1.0  0.56476  0.90679  0.86394  1.0000
  W   W21       1.0  0.80382  0.93383  0.97757  1.0000
  W   W22       1.0  0.50155  0.12280  0.87017  1.0000
  W   W23       1.0  0.73626  0.14955  0.98660  1.0000
  W   W24       1.0  0.43130  0.21515  0.00592  1.0000
