data_image0
_chemical_formula_structural       SCO3C2OCO4CHCSOC2OSOC2OSOCO2C2OCO3CHCOSOC2OCO3CHCSOC2OCO3SOC2OCO3CHCSOC2OCO4SOC2OSCO3C2OCO3CHCOSOC2OCOSO2C2OCO3CHCSOC2OCO3SOC2OCO3CHCSOC2OCO3SOC2OC2HCO3Eu8
_chemical_formula_sum              "S16 C64 O80 H8 Eu8"
_cell_length_a       23.1181
_cell_length_b       8.8477
_cell_length_c       18.8039
_cell_angle_alpha    90
_cell_angle_beta     90
_cell_angle_gamma    90

_space_group_name_H-M_alt    "P 1"
_space_group_IT_number       1

loop_
  _space_group_symop_operation_xyz
  'x, y, z'

loop_
  _atom_site_type_symbol
  _atom_site_label
  _atom_site_symmetry_multiplicity
  _atom_site_fract_x
  _atom_site_fract_y
  _atom_site_fract_z
  _atom_site_occupancy
  S   S1        1.0  0.13000  0.00770  0.38950  1.0000
  C   C1        1.0  0.16220  0.93360  0.18340  1.0000
  O   O1        1.0  0.22960  0.77980  0.43430  1.0000
  O   O2        1.0  0.10370  0.88500  0.07530  1.0000
  O   O3        1.0  0.09020  0.11790  0.13060  1.0000
  C   C2        1.0  0.20990  0.71440  0.37980  1.0000
  C   C3        1.0  0.19430  0.79440  0.31500  1.0000
  O   O4        1.0  0.17620  0.06950  0.43050  1.0000
  C   C4        1.0  0.16220  0.93360  0.31660  1.0000
  O   O5        1.0  0.09020  0.11790  0.36940  1.0000
  O   O6        1.0  0.20520  0.57280  0.37890  1.0000
  O   O7        1.0  0.10370  0.88500  0.42470  1.0000
  O   O8        1.0  0.20520  0.57280  0.12110  1.0000
  C   C5        1.0  0.20670  0.72840  0.25000  1.0000
  H   H1        1.0  0.22440  0.63410  0.25000  1.0000
  C   C6        1.0  0.14610  0.99880  0.25000  1.0000
  S   S2        1.0  0.13000  0.00770  0.11050  1.0000
  O   O9        1.0  0.22960  0.77980  0.06570  1.0000
  C   C7        1.0  0.20990  0.71440  0.12020  1.0000
  C   C8        1.0  0.19430  0.79440  0.18500  1.0000
  O   O10       1.0  0.17620  0.06950  0.06950  1.0000
  S   S3        1.0  0.63000  0.50770  0.11050  1.0000
  O   O11       1.0  0.72960  0.27980  0.06570  1.0000
  C   C9        1.0  0.70990  0.21440  0.12020  1.0000
  C   C10       1.0  0.69430  0.29440  0.18500  1.0000
  O   O12       1.0  0.67620  0.56950  0.06950  1.0000
  S   S4        1.0  0.63000  0.50770  0.38950  1.0000
  O   O13       1.0  0.59020  0.61790  0.13060  1.0000
  C   C11       1.0  0.66220  0.43360  0.18340  1.0000
  O   O14       1.0  0.72960  0.27980  0.43430  1.0000
  O   O15       1.0  0.60370  0.38500  0.07530  1.0000
  C   C12       1.0  0.70990  0.21440  0.37980  1.0000
  C   C13       1.0  0.69430  0.29440  0.31500  1.0000
  O   O16       1.0  0.67620  0.56950  0.43050  1.0000
  C   C14       1.0  0.66220  0.43360  0.31660  1.0000
  O   O17       1.0  0.59020  0.61790  0.36940  1.0000
  O   O18       1.0  0.70520  0.07280  0.37890  1.0000
  O   O19       1.0  0.60370  0.38500  0.42470  1.0000
  C   C15       1.0  0.70670  0.22840  0.25000  1.0000
  H   H2        1.0  0.72440  0.13410  0.25000  1.0000
  C   C16       1.0  0.64610  0.49880  0.25000  1.0000
  O   O20       1.0  0.70520  0.07280  0.12110  1.0000
  S   S5        1.0  0.87000  0.99230  0.88950  1.0000
  O   O21       1.0  0.77040  0.22020  0.93430  1.0000
  C   C17       1.0  0.79010  0.28560  0.87980  1.0000
  C   C18       1.0  0.80570  0.20560  0.81500  1.0000
  O   O22       1.0  0.82380  0.93050  0.93050  1.0000
  C   C19       1.0  0.83780  0.06640  0.81660  1.0000
  O   O23       1.0  0.90980  0.88210  0.86940  1.0000
  O   O24       1.0  0.79480  0.42720  0.87890  1.0000
  O   O25       1.0  0.89630  0.11500  0.92470  1.0000
  C   C20       1.0  0.79330  0.27160  0.75000  1.0000
  H   H3        1.0  0.77560  0.36590  0.75000  1.0000
  C   C21       1.0  0.85390  0.00120  0.75000  1.0000
  S   S6        1.0  0.87000  0.99230  0.61050  1.0000
  O   O26       1.0  0.77040  0.22020  0.56570  1.0000
  C   C22       1.0  0.79010  0.28560  0.62020  1.0000
  C   C23       1.0  0.80570  0.20560  0.68500  1.0000
  O   O27       1.0  0.82380  0.93050  0.56950  1.0000
  C   C24       1.0  0.83780  0.06640  0.68340  1.0000
  O   O28       1.0  0.90980  0.88210  0.63060  1.0000
  O   O29       1.0  0.79480  0.42720  0.62110  1.0000
  O   O30       1.0  0.89630  0.11500  0.57530  1.0000
  S   S7        1.0  0.37000  0.49230  0.88950  1.0000
  O   O31       1.0  0.27040  0.72020  0.93430  1.0000
  C   C25       1.0  0.29010  0.78560  0.87980  1.0000
  C   C26       1.0  0.30570  0.70560  0.81500  1.0000
  O   O32       1.0  0.32380  0.43050  0.93050  1.0000
  C   C27       1.0  0.33780  0.56640  0.81660  1.0000
  O   O33       1.0  0.40980  0.38210  0.86940  1.0000
  O   O34       1.0  0.29480  0.92720  0.87890  1.0000
  O   O35       1.0  0.39630  0.61500  0.92470  1.0000
  C   C28       1.0  0.29330  0.77160  0.75000  1.0000
  H   H4        1.0  0.27560  0.86590  0.75000  1.0000
  C   C29       1.0  0.35390  0.50120  0.75000  1.0000
  S   S8        1.0  0.37000  0.49230  0.61050  1.0000
  O   O36       1.0  0.27040  0.72020  0.56570  1.0000
  C   C30       1.0  0.29010  0.78560  0.62020  1.0000
  C   C31       1.0  0.30570  0.70560  0.68500  1.0000
  O   O37       1.0  0.32380  0.43050  0.56950  1.0000
  C   C32       1.0  0.33780  0.56640  0.68340  1.0000
  O   O38       1.0  0.40980  0.38210  0.63060  1.0000
  O   O39       1.0  0.29480  0.92720  0.62110  1.0000
  O   O40       1.0  0.39630  0.61500  0.57530  1.0000
  O   O41       1.0  0.79480  0.57280  0.37890  1.0000
  S   S9        1.0  0.87000  0.00770  0.38950  1.0000
  O   O42       1.0  0.77040  0.77980  0.43430  1.0000
  C   C33       1.0  0.79010  0.71440  0.37980  1.0000
  C   C34       1.0  0.80570  0.79440  0.31500  1.0000
  O   O43       1.0  0.82380  0.06950  0.43050  1.0000
  S   S10       1.0  0.87000  0.00770  0.11050  1.0000
  C   C35       1.0  0.83780  0.93360  0.31660  1.0000
  O   O44       1.0  0.77040  0.77980  0.06570  1.0000
  O   O45       1.0  0.89630  0.88500  0.42470  1.0000
  O   O46       1.0  0.90980  0.11790  0.36940  1.0000
  C   C36       1.0  0.79010  0.71440  0.12020  1.0000
  C   C37       1.0  0.80570  0.79440  0.18500  1.0000
  O   O47       1.0  0.82380  0.06950  0.06950  1.0000
  C   C38       1.0  0.83780  0.93360  0.18340  1.0000
  O   O48       1.0  0.90980  0.11790  0.13060  1.0000
  O   O49       1.0  0.79480  0.57280  0.12110  1.0000
  O   O50       1.0  0.89630  0.88500  0.07530  1.0000
  C   C39       1.0  0.79330  0.72840  0.25000  1.0000
  H   H5        1.0  0.77560  0.63410  0.25000  1.0000
  C   C40       1.0  0.85390  0.99880  0.25000  1.0000
  O   O51       1.0  0.29480  0.07280  0.37890  1.0000
  S   S11       1.0  0.37000  0.50770  0.38950  1.0000
  O   O52       1.0  0.27040  0.27980  0.43430  1.0000
  C   C41       1.0  0.29010  0.21440  0.37980  1.0000
  C   C42       1.0  0.30570  0.29440  0.31500  1.0000
  O   O53       1.0  0.32380  0.56950  0.43050  1.0000
  C   C43       1.0  0.33780  0.43360  0.31660  1.0000
  O   O54       1.0  0.40980  0.61790  0.36940  1.0000
  S   S12       1.0  0.37000  0.50770  0.11050  1.0000
  O   O55       1.0  0.27040  0.27980  0.06570  1.0000
  O   O56       1.0  0.39630  0.38500  0.42470  1.0000
  C   C44       1.0  0.29010  0.21440  0.12020  1.0000
  C   C45       1.0  0.30570  0.29440  0.18500  1.0000
  O   O57       1.0  0.32380  0.56950  0.06950  1.0000
  C   C46       1.0  0.33780  0.43360  0.18340  1.0000
  O   O58       1.0  0.40980  0.61790  0.13060  1.0000
  O   O59       1.0  0.29480  0.07280  0.12110  1.0000
  O   O60       1.0  0.39630  0.38500  0.07530  1.0000
  C   C47       1.0  0.29330  0.22840  0.25000  1.0000
  H   H6        1.0  0.27560  0.13410  0.25000  1.0000
  C   C48       1.0  0.35390  0.49880  0.25000  1.0000
  S   S13       1.0  0.13000  0.99230  0.88950  1.0000
  O   O61       1.0  0.22960  0.22020  0.93430  1.0000
  C   C49       1.0  0.20990  0.28560  0.87980  1.0000
  C   C50       1.0  0.19430  0.20560  0.81500  1.0000
  O   O62       1.0  0.17620  0.93050  0.93050  1.0000
  C   C51       1.0  0.16220  0.06640  0.81660  1.0000
  O   O63       1.0  0.09020  0.88210  0.86940  1.0000
  O   O64       1.0  0.20520  0.42720  0.87890  1.0000
  O   O65       1.0  0.10370  0.11500  0.92470  1.0000
  S   S14       1.0  0.13000  0.99230  0.61050  1.0000
  O   O66       1.0  0.22960  0.22020  0.56570  1.0000
  C   C52       1.0  0.20990  0.28560  0.62020  1.0000
  C   C53       1.0  0.19430  0.20560  0.68500  1.0000
  O   O67       1.0  0.17620  0.93050  0.56950  1.0000
  C   C54       1.0  0.16220  0.06640  0.68340  1.0000
  O   O68       1.0  0.09020  0.88210  0.63060  1.0000
  O   O69       1.0  0.20520  0.42720  0.62110  1.0000
  O   O70       1.0  0.10370  0.11500  0.57530  1.0000
  C   C55       1.0  0.20670  0.27160  0.75000  1.0000
  H   H7        1.0  0.22440  0.36590  0.75000  1.0000
  C   C56       1.0  0.14610  0.00120  0.75000  1.0000
  S   S15       1.0  0.63000  0.49230  0.88950  1.0000
  O   O71       1.0  0.72960  0.72020  0.93430  1.0000
  C   C57       1.0  0.70990  0.78560  0.87980  1.0000
  C   C58       1.0  0.69430  0.70560  0.81500  1.0000
  O   O72       1.0  0.67620  0.43050  0.93050  1.0000
  C   C59       1.0  0.66220  0.56640  0.81660  1.0000
  O   O73       1.0  0.59020  0.38210  0.86940  1.0000
  O   O74       1.0  0.70520  0.92720  0.87890  1.0000
  O   O75       1.0  0.60370  0.61500  0.92470  1.0000
  S   S16       1.0  0.63000  0.49230  0.61050  1.0000
  O   O76       1.0  0.72960  0.72020  0.56570  1.0000
  C   C60       1.0  0.70990  0.78560  0.62020  1.0000
  C   C61       1.0  0.69430  0.70560  0.68500  1.0000
  O   O77       1.0  0.67620  0.43050  0.56950  1.0000
  C   C62       1.0  0.66220  0.56640  0.68340  1.0000
  C   C63       1.0  0.70670  0.77160  0.75000  1.0000
  H   H8        1.0  0.72440  0.86590  0.75000  1.0000
  C   C64       1.0  0.64610  0.50120  0.75000  1.0000
  O   O78       1.0  0.59020  0.38210  0.63060  1.0000
  O   O79       1.0  0.70520  0.92720  0.62110  1.0000
  O   O80       1.0  0.60370  0.61500  0.57530  1.0000
  Eu  Eu1       1.0  0.26220  0.00000  0.50000  1.0000
  Eu  Eu2       1.0  0.76220  0.50000  0.50000  1.0000
  Eu  Eu3       1.0  0.73780  0.00000  0.00000  1.0000
  Eu  Eu4       1.0  0.23780  0.50000  0.00000  1.0000
  Eu  Eu5       1.0  0.73780  0.00000  0.50000  1.0000
  Eu  Eu6       1.0  0.23780  0.50000  0.50000  1.0000
  Eu  Eu7       1.0  0.26220  0.00000  0.00000  1.0000
  Eu  Eu8       1.0  0.76220  0.50000  0.00000  1.0000
