data_image0
_chemical_formula_structural       O4HC4HCHC2HCN2O4C4HC2HC2HO4HC4HCHC2HCN2O4C4HC2HC2HO4C4HC2HC2HNO4C4HC2HC2HNBi2OBi2O
_chemical_formula_sum              "O26 H20 C48 N6 Bi4"
_cell_length_a       9.895
_cell_length_b       10.816
_cell_length_c       15.552
_cell_angle_alpha    97.74
_cell_angle_beta     103.42
_cell_angle_gamma    111.69

_space_group_name_H-M_alt    "P 1"
_space_group_IT_number       1

loop_
  _space_group_symop_operation_xyz
  'x, y, z'

loop_
  _atom_site_type_symbol
  _atom_site_label
  _atom_site_symmetry_multiplicity
  _atom_site_fract_x
  _atom_site_fract_y
  _atom_site_fract_z
  _atom_site_occupancy
  O   O1        1.0  0.95430  0.83820  0.81240  1.0000
  O   O2        1.0  0.85400  0.93110  0.71240  1.0000
  O   O3        1.0  0.73090  0.32280  0.73180  1.0000
  O   O4        1.0  0.61870  0.20960  0.58470  1.0000
  H   H1        1.0  0.60663  0.14244  0.60609  1.0000
  C   C1        1.0  0.87840  0.82930  0.73400  1.0000
  C   C2        1.0  0.69200  0.32210  0.65100  1.0000
  C   C3        1.0  0.72140  0.45170  0.62130  1.0000
  C   C4        1.0  0.66820  0.44920  0.52890  1.0000
  H   H2        1.0  0.61849  0.36689  0.48438  1.0000
  C   C5        1.0  0.76010  0.69890  0.57070  1.0000
  H   H3        1.0  0.77092  0.78055  0.55390  1.0000
  C   C6        1.0  0.81200  0.69880  0.66260  1.0000
  C   C7        1.0  0.79340  0.57580  0.68800  1.0000
  H   H4        1.0  0.82877  0.57633  0.74895  1.0000
  C   C8        1.0  0.69280  0.57640  0.50570  1.0000
  N   N1        1.0  0.64260  0.57920  0.41200  1.0000
  N   N2        1.0  0.57210  0.46460  0.35730  1.0000
  O   O5        1.0  0.30220  0.65100  0.04190  1.0000
  O   O6        1.0  0.50650  0.79610  0.15310  1.0000
  O   O7        1.0  0.25340  0.06870  0.09950  1.0000
  O   O8        1.0  0.23420  0.14720  0.97290  1.0000
  C   C9        1.0  0.41330  0.67150  0.10730  1.0000
  C   C10       1.0  0.27410  0.16360  0.05580  1.0000
  C   C11       1.0  0.43440  0.55200  0.14000  1.0000
  C   C12       1.0  0.51380  0.57430  0.23080  1.0000
  H   H5        1.0  0.56891  0.66289  0.26755  1.0000
  C   C13       1.0  0.50960  0.46060  0.26610  1.0000
  C   C14       1.0  0.43030  0.32880  0.20780  1.0000
  H   H6        1.0  0.42625  0.25336  0.23132  1.0000
  C   C15       1.0  0.35850  0.30810  0.11660  1.0000
  C   C16       1.0  0.35960  0.42240  0.08230  1.0000
  H   H7        1.0  0.31013  0.41063  0.02120  1.0000
  O   O9        1.0  0.04570  0.16180  0.18760  1.0000
  O   O10       1.0  0.14600  0.06890  0.28760  1.0000
  O   O11       1.0  0.26910  0.67720  0.26820  1.0000
  O   O12       1.0  0.38130  0.79040  0.41530  1.0000
  H   H8        1.0  0.39337  0.85756  0.39391  1.0000
  C   C17       1.0  0.12160  0.17070  0.26600  1.0000
  C   C18       1.0  0.30800  0.67790  0.34900  1.0000
  C   C19       1.0  0.27860  0.54830  0.37870  1.0000
  C   C20       1.0  0.33180  0.55080  0.47110  1.0000
  H   H9        1.0  0.38151  0.63311  0.51562  1.0000
  C   C21       1.0  0.23990  0.30110  0.42930  1.0000
  H   H10       1.0  0.22908  0.21945  0.44610  1.0000
  C   C22       1.0  0.18800  0.30120  0.33740  1.0000
  C   C23       1.0  0.20660  0.42420  0.31200  1.0000
  H   H11       1.0  0.17123  0.42367  0.25105  1.0000
  C   C24       1.0  0.30720  0.42360  0.49430  1.0000
  N   N3        1.0  0.35740  0.42080  0.58800  1.0000
  N   N4        1.0  0.42790  0.53540  0.64270  1.0000
  O   O13       1.0  0.69780  0.34900  0.95810  1.0000
  O   O14       1.0  0.49350  0.20390  0.84690  1.0000
  O   O15       1.0  0.74660  0.93130  0.90050  1.0000
  O   O16       1.0  0.76580  0.85280  0.02710  1.0000
  C   C25       1.0  0.58670  0.32850  0.89270  1.0000
  C   C26       1.0  0.72590  0.83640  0.94420  1.0000
  C   C27       1.0  0.56560  0.44800  0.86000  1.0000
  C   C28       1.0  0.48620  0.42570  0.76920  1.0000
  H   H12       1.0  0.43109  0.33711  0.73245  1.0000
  C   C29       1.0  0.49040  0.53940  0.73390  1.0000
  C   C30       1.0  0.56970  0.67120  0.79220  1.0000
  H   H13       1.0  0.57375  0.74664  0.76868  1.0000
  C   C31       1.0  0.64150  0.69190  0.88340  1.0000
  C   C32       1.0  0.64040  0.57760  0.91770  1.0000
  H   H14       1.0  0.68987  0.58937  0.97880  1.0000
  O   O17       1.0  0.11430  0.35620  0.87210  1.0000
  O   O18       1.0  0.98660  0.22400  0.73340  1.0000
  O   O19       1.0  0.44770  0.93100  0.79110  1.0000
  O   O20       1.0  0.40190  0.86400  0.91270  1.0000
  C   C33       1.0  0.06780  0.34180  0.78780  1.0000
  C   C34       1.0  0.37080  0.84120  0.82700  1.0000
  C   C35       1.0  0.11390  0.46460  0.74820  1.0000
  C   C36       1.0  0.05690  0.44790  0.65540  1.0000
  H   H15       1.0  0.99230  0.36128  0.61779  1.0000
  C   C37       1.0  0.09760  0.56360  0.61840  1.0000
  C   C38       1.0  0.19650  0.69250  0.67340  1.0000
  H   H16       1.0  0.22660  0.76775  0.64818  1.0000
  C   C39       1.0  0.25130  0.70820  0.76850  1.0000
  C   C40       1.0  0.20720  0.59360  0.80520  1.0000
  H   H17       1.0  0.24061  0.60402  0.86782  1.0000
  N   N5        1.0  0.04460  0.55990  0.52440  1.0000
  O   O21       1.0  0.88570  0.64380  0.12790  1.0000
  O   O22       1.0  0.01340  0.77600  0.26660  1.0000
  O   O23       1.0  0.55230  0.06900  0.20890  1.0000
  O   O24       1.0  0.59810  0.13600  0.08730  1.0000
  C   C41       1.0  0.93220  0.65820  0.21220  1.0000
  C   C42       1.0  0.62920  0.15880  0.17300  1.0000
  C   C43       1.0  0.88610  0.53540  0.25180  1.0000
  C   C44       1.0  0.94310  0.55210  0.34460  1.0000
  H   H18       1.0  0.00770  0.63872  0.38221  1.0000
  C   C45       1.0  0.90240  0.43640  0.38160  1.0000
  C   C46       1.0  0.80350  0.30750  0.32660  1.0000
  H   H19       1.0  0.77340  0.23225  0.35182  1.0000
  C   C47       1.0  0.74870  0.29180  0.23150  1.0000
  C   C48       1.0  0.79280  0.40640  0.19480  1.0000
  H   H20       1.0  0.75939  0.39598  0.13218  1.0000
  N   N6        1.0  0.95540  0.44010  0.47560  1.0000
  Bi  Bi1       1.0  0.35899  0.90578  0.07944  1.0000
  Bi  Bi2       1.0  0.98329  0.10025  0.84380  1.0000
  O   O25       1.0  0.23520  0.86030  0.17470  1.0000
  Bi  Bi3       1.0  0.64101  0.09422  0.92056  1.0000
  Bi  Bi4       1.0  0.01671  0.89975  0.15620  1.0000
  O   O26       1.0  0.76480  0.13970  0.82530  1.0000
