data_image0
_chemical_formula_structural       C3O5CHC2HC2HO2C2OC2HCHC3HC3O5CHC2HC2HO2C2OC2HCHC3HPb4C3O5CHC2HC2HO2C2OC2HCHC3HC3O5CHC2HC2HO2C2OC2HCHC3HPb4
_chemical_formula_sum              "C64 O32 H24 Pb8"
_cell_length_a       14.6242
_cell_length_b       9.4816
_cell_length_c       11.803
_cell_angle_alpha    81.482
_cell_angle_beta     74.95
_cell_angle_gamma    73.334

_space_group_name_H-M_alt    "P 1"
_space_group_IT_number       1

loop_
  _space_group_symop_operation_xyz
  'x, y, z'

loop_
  _atom_site_type_symbol
  _atom_site_label
  _atom_site_symmetry_multiplicity
  _atom_site_fract_x
  _atom_site_fract_y
  _atom_site_fract_z
  _atom_site_occupancy
  C   C1        1.0  0.15200  0.06600  0.89100  1.0000
  C   C2        1.0  0.27450  0.33600  0.34500  1.0000
  C   C3        1.0  0.13050  0.73300  0.29700  1.0000
  O   O1        1.0  0.41250  0.13300  0.35800  1.0000
  O   O2        1.0  0.35150  0.50800  0.99100  1.0000
  O   O3        1.0  0.37250  0.68000  0.84600  1.0000
  O   O4        1.0  0.22450  0.97500  0.83100  1.0000
  O   O5        1.0  0.06500  0.82700  0.36110  1.0000
  C   C4        1.0  0.22750  0.30300  0.46100  1.0000
  H   H1        1.0  0.24932  0.20738  0.49823  1.0000
  C   C5        1.0  0.36850  0.22800  0.28800  1.0000
  C   C6        1.0  0.12050  0.54300  0.46300  1.0000
  H   H2        1.0  0.06868  0.61797  0.50307  1.0000
  C   C7        1.0  0.10800  0.20300  0.82900  1.0000
  C   C8        1.0  0.03200  0.30500  0.89200  1.0000
  H   H3        1.0  0.00624  0.28249  0.97362  1.0000
  O   O6        1.0  0.17000  0.76400  0.19090  1.0000
  O   O7        1.0  0.40050  0.24000  0.18100  1.0000
  C   C9        1.0  0.40000  0.55100  0.89600  1.0000
  C   C10       1.0  0.14800  0.40700  0.52600  1.0000
  O   O8        1.0  0.11500  0.03300  0.99800  1.0000
  C   C11       1.0  0.10650  0.36900  0.65100  1.0000
  C   C12       1.0  0.14350  0.23500  0.71000  1.0000
  H   H4        1.0  0.19506  0.16193  0.66736  1.0000
  C   C13       1.0  0.03250  0.46900  0.70900  1.0000
  H   H5        1.0  0.00515  0.55996  0.66896  1.0000
  C   C14       1.0  0.16500  0.57900  0.34100  1.0000
  C   C15       1.0  0.49250  0.44000  0.83800  1.0000
  C   C16       1.0  0.24100  0.47800  0.28900  1.0000
  H   H6        1.0  0.27405  0.50074  0.21062  1.0000
  C   C17       1.0  0.34800  0.93400  0.10900  1.0000
  C   C18       1.0  0.22550  0.66400  0.65500  1.0000
  C   C19       1.0  0.36950  0.26700  0.70300  1.0000
  O   O9        1.0  0.08750  0.86700  0.64200  1.0000
  O   O10       1.0  0.14850  0.49200  0.00900  1.0000
  O   O11       1.0  0.12750  0.32000  0.15400  1.0000
  O   O12       1.0  0.27550  0.02500  0.16900  1.0000
  O   O13       1.0  0.43500  0.17300  0.63890  1.0000
  C   C20       1.0  0.27250  0.69700  0.53900  1.0000
  H   H7        1.0  0.25068  0.79262  0.50177  1.0000
  C   C21       1.0  0.13150  0.77200  0.71200  1.0000
  C   C22       1.0  0.37950  0.45700  0.53700  1.0000
  H   H8        1.0  0.43132  0.38203  0.49693  1.0000
  C   C23       1.0  0.39200  0.79700  0.17100  1.0000
  C   C24       1.0  0.46800  0.69500  0.10800  1.0000
  H   H9        1.0  0.49376  0.71751  0.02638  1.0000
  O   O14       1.0  0.33000  0.23600  0.80910  1.0000
  O   O15       1.0  0.09950  0.76000  0.81900  1.0000
  C   C25       1.0  0.10000  0.44900  0.10400  1.0000
  C   C26       1.0  0.35200  0.59300  0.47400  1.0000
  O   O16       1.0  0.38500  0.96700  0.00200  1.0000
  C   C27       1.0  0.39350  0.63100  0.34900  1.0000
  C   C28       1.0  0.35650  0.76500  0.29000  1.0000
  H   H10       1.0  0.30494  0.83807  0.33264  1.0000
  C   C29       1.0  0.46750  0.53100  0.29100  1.0000
  H   H11       1.0  0.49485  0.44004  0.33104  1.0000
  C   C30       1.0  0.33500  0.42100  0.65900  1.0000
  C   C31       1.0  0.00750  0.56000  0.16200  1.0000
  C   C32       1.0  0.25900  0.52200  0.71100  1.0000
  H   H12       1.0  0.22595  0.49926  0.78938  1.0000
  Pb  Pb1       1.0  0.29855  0.25606  0.03299  1.0000
  Pb  Pb2       1.0  0.08109  0.05367  0.23422  1.0000
  Pb  Pb3       1.0  0.20145  0.74394  0.96701  1.0000
  Pb  Pb4       1.0  0.41890  0.94633  0.76578  1.0000
  C   C33       1.0  0.65200  0.06600  0.89100  1.0000
  C   C34       1.0  0.77450  0.33600  0.34500  1.0000
  C   C35       1.0  0.63050  0.73300  0.29700  1.0000
  O   O17       1.0  0.91250  0.13300  0.35800  1.0000
  O   O18       1.0  0.85150  0.50800  0.99100  1.0000
  O   O19       1.0  0.87250  0.68000  0.84600  1.0000
  O   O20       1.0  0.72450  0.97500  0.83100  1.0000
  O   O21       1.0  0.56500  0.82700  0.36110  1.0000
  C   C36       1.0  0.72750  0.30300  0.46100  1.0000
  H   H13       1.0  0.74932  0.20738  0.49823  1.0000
  C   C37       1.0  0.86850  0.22800  0.28800  1.0000
  C   C38       1.0  0.62050  0.54300  0.46300  1.0000
  H   H14       1.0  0.56868  0.61797  0.50307  1.0000
  C   C39       1.0  0.60800  0.20300  0.82900  1.0000
  C   C40       1.0  0.53200  0.30500  0.89200  1.0000
  H   H15       1.0  0.50624  0.28249  0.97362  1.0000
  O   O22       1.0  0.67000  0.76400  0.19090  1.0000
  O   O23       1.0  0.90050  0.24000  0.18100  1.0000
  C   C41       1.0  0.90000  0.55100  0.89600  1.0000
  C   C42       1.0  0.64800  0.40700  0.52600  1.0000
  O   O24       1.0  0.61500  0.03300  0.99800  1.0000
  C   C43       1.0  0.60650  0.36900  0.65100  1.0000
  C   C44       1.0  0.64350  0.23500  0.71000  1.0000
  H   H16       1.0  0.69506  0.16193  0.66736  1.0000
  C   C45       1.0  0.53250  0.46900  0.70900  1.0000
  H   H17       1.0  0.50515  0.55996  0.66896  1.0000
  C   C46       1.0  0.66500  0.57900  0.34100  1.0000
  C   C47       1.0  0.99250  0.44000  0.83800  1.0000
  C   C48       1.0  0.74100  0.47800  0.28900  1.0000
  H   H18       1.0  0.77405  0.50074  0.21062  1.0000
  C   C49       1.0  0.84800  0.93400  0.10900  1.0000
  C   C50       1.0  0.72550  0.66400  0.65500  1.0000
  C   C51       1.0  0.86950  0.26700  0.70300  1.0000
  O   O25       1.0  0.58750  0.86700  0.64200  1.0000
  O   O26       1.0  0.64850  0.49200  0.00900  1.0000
  O   O27       1.0  0.62750  0.32000  0.15400  1.0000
  O   O28       1.0  0.77550  0.02500  0.16900  1.0000
  O   O29       1.0  0.93500  0.17300  0.63890  1.0000
  C   C52       1.0  0.77250  0.69700  0.53900  1.0000
  H   H19       1.0  0.75068  0.79262  0.50177  1.0000
  C   C53       1.0  0.63150  0.77200  0.71200  1.0000
  C   C54       1.0  0.87950  0.45700  0.53700  1.0000
  H   H20       1.0  0.93132  0.38203  0.49693  1.0000
  C   C55       1.0  0.89200  0.79700  0.17100  1.0000
  C   C56       1.0  0.96800  0.69500  0.10800  1.0000
  H   H21       1.0  0.99376  0.71751  0.02638  1.0000
  O   O30       1.0  0.83000  0.23600  0.80910  1.0000
  O   O31       1.0  0.59950  0.76000  0.81900  1.0000
  C   C57       1.0  0.60000  0.44900  0.10400  1.0000
  C   C58       1.0  0.85200  0.59300  0.47400  1.0000
  O   O32       1.0  0.88500  0.96700  0.00200  1.0000
  C   C59       1.0  0.89350  0.63100  0.34900  1.0000
  C   C60       1.0  0.85650  0.76500  0.29000  1.0000
  H   H22       1.0  0.80494  0.83807  0.33264  1.0000
  C   C61       1.0  0.96750  0.53100  0.29100  1.0000
  H   H23       1.0  0.99485  0.44004  0.33104  1.0000
  C   C62       1.0  0.83500  0.42100  0.65900  1.0000
  C   C63       1.0  0.50750  0.56000  0.16200  1.0000
  C   C64       1.0  0.75900  0.52200  0.71100  1.0000
  H   H24       1.0  0.72595  0.49926  0.78938  1.0000
  Pb  Pb5       1.0  0.79855  0.25606  0.03299  1.0000
  Pb  Pb6       1.0  0.58109  0.05367  0.23422  1.0000
  Pb  Pb7       1.0  0.70145  0.74394  0.96701  1.0000
  Pb  Pb8       1.0  0.91890  0.94633  0.76578  1.0000
