data_image0
_chemical_formula_structural       N2HN2HC3HCHCHC3HCHC2HCH2N4HC2HC2N2HN2HC3HCHCHC3HC2HC2H2CHN4HC2HCN2HN2HC3HCHCHC3HC3HC2HNCH2N3HC2HN2HN2HC3HCHCHC3H2C3HC2HNCH2N3HC2N2HN2HC3HCHCHC3HN2HN2HC3HCHCHC3HN2HN2HC3HCHCHC3HN2HN2HC3HCHCHC3HSO4SO4SO4SO4SO4SO4SO4SO4Cu8
_chemical_formula_sum              "N48 H72 C96 S8 O32 Cu8"
_cell_length_a       20.6518
_cell_length_b       9.8071
_cell_length_c       15.1637
_cell_angle_alpha    90
_cell_angle_beta     90
_cell_angle_gamma    90

_space_group_name_H-M_alt    "P 1"
_space_group_IT_number       1

loop_
  _space_group_symop_operation_xyz
  'x, y, z'

loop_
  _atom_site_type_symbol
  _atom_site_label
  _atom_site_symmetry_multiplicity
  _atom_site_fract_x
  _atom_site_fract_y
  _atom_site_fract_z
  _atom_site_occupancy
  N   N1        1.0  0.32212  0.29190  0.88270  1.0000
  N   N2        1.0  0.33070  0.22780  0.74330  1.0000
  H   H1        1.0  0.33427  0.17393  0.69714  1.0000
  N   N3        1.0  0.31989  0.71120  0.64330  1.0000
  N   N4        1.0  0.32220  0.77590  0.78280  1.0000
  H   H2        1.0  0.32313  0.82998  0.82912  1.0000
  C   C1        1.0  0.32080  0.40820  0.83090  1.0000
  C   C2        1.0  0.32530  0.36700  0.74120  1.0000
  C   C3        1.0  0.32240  0.45800  0.67070  1.0000
  H   H3        1.0  0.32191  0.42901  0.61095  1.0000
  C   C4        1.0  0.32940  0.18800  0.82800  1.0000
  H   H4        1.0  0.33323  0.09585  0.84646  1.0000
  C   C5        1.0  0.31590  0.54410  0.85470  1.0000
  H   H5        1.0  0.31017  0.57303  0.91398  1.0000
  C   C6        1.0  0.32040  0.59340  0.69480  1.0000
  C   C7        1.0  0.32020  0.63430  0.78460  1.0000
  C   C8        1.0  0.32240  0.81500  0.69920  1.0000
  H   H6        1.0  0.32427  0.90774  0.68121  1.0000
  C   C9        1.0  0.48300  0.36840  0.48740  1.0000
  H   H7        1.0  0.61086  0.56913  0.50586  1.0000
  C   C10       1.0  0.54900  0.40570  0.49280  1.0000
  C   C11       1.0  0.43320  0.45880  0.49590  1.0000
  H   H8        1.0  0.38914  0.43087  0.49414  1.0000
  C   C12       1.0  0.54710  0.18980  0.47110  1.0000
  H   H9        1.0  0.56066  0.09860  0.46113  1.0000
  H   H10       1.0  0.44899  0.17450  0.46582  1.0000
  N   N5        1.0  0.41450  0.71550  0.51620  1.0000
  N   N6        1.0  0.58550  0.28450  0.48380  1.0000
  N   N7        1.0  0.48290  0.22770  0.47270  1.0000
  N   N8        1.0  0.51710  0.77230  0.52730  1.0000
  H   H11       1.0  0.55101  0.82550  0.53418  1.0000
  C   C13       1.0  0.51700  0.63160  0.51260  1.0000
  C   C14       1.0  0.45290  0.81020  0.52890  1.0000
  H   H12       1.0  0.43934  0.90140  0.53887  1.0000
  C   C15       1.0  0.45100  0.59430  0.50720  1.0000
  C   C16       1.0  0.56680  0.54120  0.50410  1.0000
  N   N9        1.0  0.17788  0.20810  0.38270  1.0000
  N   N10       1.0  0.16930  0.27220  0.24330  1.0000
  H   H13       1.0  0.16573  0.32607  0.19714  1.0000
  N   N11       1.0  0.18011  0.78880  0.14330  1.0000
  N   N12       1.0  0.17780  0.72410  0.28280  1.0000
  H   H14       1.0  0.17687  0.67002  0.32912  1.0000
  C   C17       1.0  0.17920  0.09180  0.33090  1.0000
  C   C18       1.0  0.17470  0.13300  0.24120  1.0000
  C   C19       1.0  0.17760  0.04200  0.17070  1.0000
  H   H15       1.0  0.17809  0.07099  0.11095  1.0000
  C   C20       1.0  0.17060  0.31200  0.32800  1.0000
  H   H16       1.0  0.16677  0.40415  0.34646  1.0000
  C   C21       1.0  0.18410  0.95590  0.35470  1.0000
  H   H17       1.0  0.18983  0.92697  0.41398  1.0000
  C   C22       1.0  0.17960  0.90660  0.19480  1.0000
  C   C23       1.0  0.17980  0.86570  0.28460  1.0000
  C   C24       1.0  0.17760  0.68500  0.19920  1.0000
  H   H18       1.0  0.17573  0.59226  0.18121  1.0000
  C   C25       1.0  0.93320  0.95880  0.00410  1.0000
  C   C26       1.0  0.01700  0.13160  0.98740  1.0000
  H   H19       1.0  0.88914  0.93087  0.00586  1.0000
  C   C27       1.0  0.95100  0.09430  0.99280  1.0000
  C   C28       1.0  0.06680  0.04120  0.99590  1.0000
  H   H20       1.0  0.11086  0.06913  0.99414  1.0000
  H   H21       1.0  0.05101  0.32550  0.96582  1.0000
  C   C29       1.0  0.95290  0.31020  0.97110  1.0000
  H   H22       1.0  0.93934  0.40140  0.96113  1.0000
  N   N13       1.0  0.01710  0.27230  0.97270  1.0000
  N   N14       1.0  0.08550  0.78450  0.01620  1.0000
  N   N15       1.0  0.91450  0.21550  0.98380  1.0000
  N   N16       1.0  0.98290  0.72770  0.02730  1.0000
  H   H23       1.0  0.94899  0.67450  0.03418  1.0000
  C   C30       1.0  0.98300  0.86840  0.01260  1.0000
  C   C31       1.0  0.04710  0.68980  0.02890  1.0000
  H   H24       1.0  0.06066  0.59860  0.03887  1.0000
  C   C32       1.0  0.04900  0.90570  0.00720  1.0000
  N   N17       1.0  0.67788  0.29190  0.61730  1.0000
  N   N18       1.0  0.66930  0.22780  0.75670  1.0000
  H   H25       1.0  0.66573  0.17393  0.80286  1.0000
  N   N19       1.0  0.68011  0.71120  0.85670  1.0000
  N   N20       1.0  0.67780  0.77590  0.71720  1.0000
  H   H26       1.0  0.67687  0.82998  0.67088  1.0000
  C   C33       1.0  0.67920  0.40820  0.66910  1.0000
  C   C34       1.0  0.67470  0.36700  0.75880  1.0000
  C   C35       1.0  0.67760  0.45800  0.82930  1.0000
  H   H27       1.0  0.67809  0.42901  0.88905  1.0000
  C   C36       1.0  0.67060  0.18800  0.67200  1.0000
  H   H28       1.0  0.66677  0.09585  0.65354  1.0000
  C   C37       1.0  0.68410  0.54410  0.64530  1.0000
  H   H29       1.0  0.68983  0.57303  0.58602  1.0000
  C   C38       1.0  0.67960  0.59340  0.80520  1.0000
  C   C39       1.0  0.67980  0.63430  0.71540  1.0000
  C   C40       1.0  0.67760  0.81500  0.80080  1.0000
  H   H30       1.0  0.67573  0.90774  0.81879  1.0000
  C   C41       1.0  0.54900  0.59430  0.99280  1.0000
  C   C42       1.0  0.43320  0.54120  0.99590  1.0000
  C   C43       1.0  0.51700  0.36840  0.01260  1.0000
  H   H31       1.0  0.38914  0.56913  0.99414  1.0000
  C   C44       1.0  0.45100  0.40570  0.00720  1.0000
  C   C45       1.0  0.56680  0.45880  0.00410  1.0000
  H   H32       1.0  0.61086  0.43087  0.00586  1.0000
  N   N21       1.0  0.51710  0.22770  0.02730  1.0000
  C   C46       1.0  0.45290  0.18980  0.02890  1.0000
  H   H33       1.0  0.55101  0.17450  0.03418  1.0000
  H   H34       1.0  0.43934  0.09860  0.03887  1.0000
  N   N22       1.0  0.58550  0.71550  0.98380  1.0000
  N   N23       1.0  0.41450  0.28450  0.01620  1.0000
  N   N24       1.0  0.48290  0.77230  0.97270  1.0000
  H   H35       1.0  0.44899  0.82550  0.96582  1.0000
  C   C47       1.0  0.48300  0.63160  0.98740  1.0000
  C   C48       1.0  0.54710  0.81020  0.97110  1.0000
  H   H36       1.0  0.56066  0.90140  0.96113  1.0000
  N   N25       1.0  0.82212  0.20810  0.11730  1.0000
  N   N26       1.0  0.83070  0.27220  0.25670  1.0000
  H   H37       1.0  0.83427  0.32607  0.30286  1.0000
  N   N27       1.0  0.81989  0.78880  0.35670  1.0000
  N   N28       1.0  0.82220  0.72410  0.21720  1.0000
  H   H38       1.0  0.82313  0.67002  0.17088  1.0000
  C   C49       1.0  0.82080  0.09180  0.16910  1.0000
  C   C50       1.0  0.82530  0.13300  0.25880  1.0000
  C   C51       1.0  0.82240  0.04200  0.32930  1.0000
  H   H39       1.0  0.82191  0.07099  0.38905  1.0000
  C   C52       1.0  0.82940  0.31200  0.17200  1.0000
  H   H40       1.0  0.83323  0.40415  0.15354  1.0000
  C   C53       1.0  0.81590  0.95590  0.14530  1.0000
  H   H41       1.0  0.81017  0.92697  0.08602  1.0000
  C   C54       1.0  0.82040  0.90660  0.30520  1.0000
  C   C55       1.0  0.82020  0.86570  0.21540  1.0000
  C   C56       1.0  0.82240  0.68500  0.30080  1.0000
  H   H42       1.0  0.82427  0.59226  0.31879  1.0000
  H   H43       1.0  0.93934  0.59860  0.46113  1.0000
  C   C57       1.0  0.95100  0.90570  0.49280  1.0000
  C   C58       1.0  0.06680  0.95880  0.49590  1.0000
  C   C59       1.0  0.98300  0.13160  0.51260  1.0000
  H   H44       1.0  0.11086  0.93087  0.49414  1.0000
  C   C60       1.0  0.04900  0.09430  0.50720  1.0000
  C   C61       1.0  0.93320  0.04120  0.50410  1.0000
  H   H45       1.0  0.88914  0.06913  0.50586  1.0000
  N   N29       1.0  0.98290  0.27230  0.52730  1.0000
  C   C62       1.0  0.04710  0.31020  0.52890  1.0000
  H   H46       1.0  0.94899  0.32550  0.53418  1.0000
  H   H47       1.0  0.06066  0.40140  0.53887  1.0000
  N   N30       1.0  0.91450  0.78450  0.48380  1.0000
  N   N31       1.0  0.08550  0.21550  0.51620  1.0000
  N   N32       1.0  0.01710  0.72770  0.47270  1.0000
  H   H48       1.0  0.05101  0.67450  0.46582  1.0000
  C   C63       1.0  0.01700  0.86840  0.48740  1.0000
  C   C64       1.0  0.95290  0.68980  0.47110  1.0000
  N   N33       1.0  0.67788  0.70810  0.11730  1.0000
  N   N34       1.0  0.66930  0.77220  0.25670  1.0000
  H   H49       1.0  0.66573  0.82607  0.30286  1.0000
  N   N35       1.0  0.68011  0.28880  0.35670  1.0000
  N   N36       1.0  0.67780  0.22410  0.21720  1.0000
  H   H50       1.0  0.67687  0.17002  0.17088  1.0000
  C   C65       1.0  0.67920  0.59180  0.16910  1.0000
  C   C66       1.0  0.67470  0.63300  0.25880  1.0000
  C   C67       1.0  0.67760  0.54200  0.32930  1.0000
  H   H51       1.0  0.67809  0.57099  0.38905  1.0000
  C   C68       1.0  0.67060  0.81200  0.17200  1.0000
  H   H52       1.0  0.66677  0.90415  0.15354  1.0000
  C   C69       1.0  0.68410  0.45590  0.14530  1.0000
  H   H53       1.0  0.68983  0.42697  0.08602  1.0000
  C   C70       1.0  0.67960  0.40660  0.30520  1.0000
  C   C71       1.0  0.67980  0.36570  0.21540  1.0000
  C   C72       1.0  0.67760  0.18500  0.30080  1.0000
  H   H54       1.0  0.67573  0.09226  0.31879  1.0000
  N   N37       1.0  0.82212  0.79190  0.61730  1.0000
  N   N38       1.0  0.83070  0.72780  0.75670  1.0000
  H   H55       1.0  0.83427  0.67393  0.80286  1.0000
  N   N39       1.0  0.81989  0.21120  0.85670  1.0000
  N   N40       1.0  0.82220  0.27590  0.71720  1.0000
  H   H56       1.0  0.82313  0.32998  0.67088  1.0000
  C   C73       1.0  0.82080  0.90820  0.66910  1.0000
  C   C74       1.0  0.82530  0.86700  0.75880  1.0000
  C   C75       1.0  0.82240  0.95800  0.82930  1.0000
  H   H57       1.0  0.82191  0.92901  0.88905  1.0000
  C   C76       1.0  0.82940  0.68800  0.67200  1.0000
  H   H58       1.0  0.83323  0.59585  0.65354  1.0000
  C   C77       1.0  0.81590  0.04410  0.64530  1.0000
  H   H59       1.0  0.81017  0.07303  0.58602  1.0000
  C   C78       1.0  0.82040  0.09340  0.80520  1.0000
  C   C79       1.0  0.82020  0.13430  0.71540  1.0000
  C   C80       1.0  0.82240  0.31500  0.80080  1.0000
  H   H60       1.0  0.82427  0.40774  0.81879  1.0000
  N   N41       1.0  0.32212  0.70810  0.38270  1.0000
  N   N42       1.0  0.33070  0.77220  0.24330  1.0000
  H   H61       1.0  0.33427  0.82607  0.19714  1.0000
  N   N43       1.0  0.31989  0.28880  0.14330  1.0000
  N   N44       1.0  0.32220  0.22410  0.28280  1.0000
  H   H62       1.0  0.32313  0.17002  0.32912  1.0000
  C   C81       1.0  0.32080  0.59180  0.33090  1.0000
  C   C82       1.0  0.32530  0.63300  0.24120  1.0000
  C   C83       1.0  0.32240  0.54200  0.17070  1.0000
  H   H63       1.0  0.32191  0.57099  0.11095  1.0000
  C   C84       1.0  0.32940  0.81200  0.32800  1.0000
  H   H64       1.0  0.33323  0.90415  0.34646  1.0000
  C   C85       1.0  0.31590  0.45590  0.35470  1.0000
  H   H65       1.0  0.31017  0.42697  0.41398  1.0000
  C   C86       1.0  0.32040  0.40660  0.19480  1.0000
  C   C87       1.0  0.32020  0.36570  0.28460  1.0000
  C   C88       1.0  0.32240  0.18500  0.19920  1.0000
  H   H66       1.0  0.32427  0.09226  0.18121  1.0000
  N   N45       1.0  0.17788  0.79190  0.88270  1.0000
  N   N46       1.0  0.16930  0.72780  0.74330  1.0000
  H   H67       1.0  0.16573  0.67393  0.69714  1.0000
  N   N47       1.0  0.18011  0.21120  0.64330  1.0000
  N   N48       1.0  0.17780  0.27590  0.78280  1.0000
  H   H68       1.0  0.17687  0.32998  0.82912  1.0000
  C   C89       1.0  0.17920  0.90820  0.83090  1.0000
  C   C90       1.0  0.17470  0.86700  0.74120  1.0000
  C   C91       1.0  0.17760  0.95800  0.67070  1.0000
  H   H69       1.0  0.17809  0.92901  0.61095  1.0000
  C   C92       1.0  0.17060  0.68800  0.82800  1.0000
  H   H70       1.0  0.16677  0.59585  0.84646  1.0000
  C   C93       1.0  0.18410  0.04410  0.85470  1.0000
  H   H71       1.0  0.18983  0.07303  0.91398  1.0000
  C   C94       1.0  0.17960  0.09340  0.69480  1.0000
  C   C95       1.0  0.17980  0.13430  0.78460  1.0000
  C   C96       1.0  0.17760  0.31500  0.69920  1.0000
  H   H72       1.0  0.17573  0.40774  0.68121  1.0000
  S   S1        1.0  0.17538  0.57848  0.51306  1.0000
  O   O1        1.0  0.20928  0.44670  0.51248  1.0000
  O   O2        1.0  0.13369  0.59110  0.43430  1.0000
  O   O3        1.0  0.22193  0.69270  0.51200  1.0000
  O   O4        1.0  0.13430  0.59000  0.59280  1.0000
  S   S2        1.0  0.32462  0.92152  0.01306  1.0000
  O   O5        1.0  0.29072  0.05330  0.01248  1.0000
  O   O6        1.0  0.36631  0.90890  0.93430  1.0000
  O   O7        1.0  0.27807  0.80730  0.01200  1.0000
  O   O8        1.0  0.36570  0.91000  0.09280  1.0000
  S   S3        1.0  0.82462  0.57848  0.98694  1.0000
  O   O9        1.0  0.79072  0.44670  0.98752  1.0000
  O   O10       1.0  0.86631  0.59110  0.06570  1.0000
  O   O11       1.0  0.77807  0.69270  0.98800  1.0000
  O   O12       1.0  0.86570  0.59000  0.90720  1.0000
  S   S4        1.0  0.67538  0.92152  0.48694  1.0000
  O   O13       1.0  0.70928  0.05330  0.48752  1.0000
  O   O14       1.0  0.63369  0.90890  0.56570  1.0000
  O   O15       1.0  0.72193  0.80730  0.48800  1.0000
  O   O16       1.0  0.63430  0.91000  0.40720  1.0000
  S   S5        1.0  0.82462  0.42152  0.48694  1.0000
  O   O17       1.0  0.79072  0.55330  0.48752  1.0000
  O   O18       1.0  0.86631  0.40890  0.56570  1.0000
  O   O19       1.0  0.77807  0.30730  0.48800  1.0000
  O   O20       1.0  0.86570  0.41000  0.40720  1.0000
  S   S6        1.0  0.67538  0.07848  0.98694  1.0000
  O   O21       1.0  0.70928  0.94670  0.98752  1.0000
  O   O22       1.0  0.63369  0.09110  0.06570  1.0000
  O   O23       1.0  0.72193  0.19270  0.98800  1.0000
  O   O24       1.0  0.63430  0.09000  0.90720  1.0000
  S   S7        1.0  0.17538  0.42152  0.01306  1.0000
  O   O25       1.0  0.20928  0.55330  0.01248  1.0000
  O   O26       1.0  0.13369  0.40890  0.93430  1.0000
  O   O27       1.0  0.22193  0.30730  0.01200  1.0000
  O   O28       1.0  0.13430  0.41000  0.09280  1.0000
  S   S8        1.0  0.32462  0.07848  0.51306  1.0000
  O   O29       1.0  0.29072  0.94670  0.51248  1.0000
  O   O30       1.0  0.36631  0.09110  0.43430  1.0000
  O   O31       1.0  0.27807  0.19270  0.51200  1.0000
  O   O32       1.0  0.36570  0.09000  0.59280  1.0000
  Cu  Cu1       1.0  0.31832  0.72472  0.51310  1.0000
  Cu  Cu2       1.0  0.18168  0.77528  0.01310  1.0000
  Cu  Cu3       1.0  0.68168  0.72472  0.98690  1.0000
  Cu  Cu4       1.0  0.81832  0.77528  0.48690  1.0000
  Cu  Cu5       1.0  0.68168  0.27528  0.48690  1.0000
  Cu  Cu6       1.0  0.81832  0.22472  0.98690  1.0000
  Cu  Cu7       1.0  0.31832  0.27528  0.01310  1.0000
  Cu  Cu8       1.0  0.18168  0.22472  0.51310  1.0000
