data_image0
_chemical_formula_structural       O4C2O4C2O4C2O4C3O3CO5C2O4C2O4C2Eu4
_chemical_formula_sum              "O32 C16 Eu4"
_cell_length_a       9.6706
_cell_length_b       11.7551
_cell_length_c       12.3115
_cell_angle_alpha    90
_cell_angle_beta     99.269
_cell_angle_gamma    90

_space_group_name_H-M_alt    "P 1"
_space_group_IT_number       1

loop_
  _space_group_symop_operation_xyz
  'x, y, z'

loop_
  _atom_site_type_symbol
  _atom_site_label
  _atom_site_symmetry_multiplicity
  _atom_site_fract_x
  _atom_site_fract_y
  _atom_site_fract_z
  _atom_site_occupancy
  O   O1        1.0  0.36050  0.21540  0.15630  1.0000
  O   O2        1.0  0.19210  0.14080  0.29430  1.0000
  O   O3        1.0  0.31600  0.39480  0.20010  1.0000
  O   O4        1.0  0.13390  0.31971  0.32780  1.0000
  C   C1        1.0  0.30120  0.28900  0.20610  1.0000
  C   C2        1.0  0.19980  0.24520  0.28220  1.0000
  O   O5        1.0  0.31860  0.01180  0.97730  1.0000
  O   O6        1.0  0.46640  0.98630  0.85770  1.0000
  O   O7        1.0  0.68140  0.98820  0.02270  1.0000
  O   O8        1.0  0.53360  0.01370  0.14230  1.0000
  C   C3        1.0  0.43790  0.99900  0.95310  1.0000
  C   C4        1.0  0.56210  0.00100  0.04690  1.0000
  O   O9        1.0  0.10230  0.89110  0.06710  1.0000
  O   O10       1.0  0.91610  0.88190  0.93340  1.0000
  O   O11       1.0  0.89770  0.10890  0.93290  1.0000
  O   O12       1.0  0.08390  0.11810  0.06660  1.0000
  C   C5        1.0  0.99410  0.06590  0.99920  1.0000
  C   C6        1.0  0.00590  0.93410  0.00080  1.0000
  O   O13       1.0  0.13950  0.71540  0.34370  1.0000
  O   O14       1.0  0.30790  0.64080  0.20570  1.0000
  O   O15       1.0  0.18400  0.89480  0.29990  1.0000
  O   O16       1.0  0.36610  0.81971  0.17220  1.0000
  C   C7        1.0  0.19880  0.78900  0.29390  1.0000
  C   C8        1.0  0.30020  0.74520  0.21780  1.0000
  C   C9        1.0  0.93790  0.50100  0.45310  1.0000
  O   O17       1.0  0.18140  0.51180  0.52270  1.0000
  O   O18       1.0  0.03360  0.48630  0.64230  1.0000
  O   O19       1.0  0.81860  0.48820  0.47730  1.0000
  C   C10       1.0  0.06210  0.49900  0.54690  1.0000
  O   O20       1.0  0.96640  0.51370  0.35770  1.0000
  O   O21       1.0  0.60230  0.60890  0.56710  1.0000
  O   O22       1.0  0.41610  0.61810  0.43340  1.0000
  O   O23       1.0  0.39770  0.39110  0.43290  1.0000
  O   O24       1.0  0.58390  0.38190  0.56660  1.0000
  C   C11       1.0  0.49410  0.43410  0.49920  1.0000
  C   C12       1.0  0.50590  0.56590  0.50080  1.0000
  O   O25       1.0  0.63950  0.78460  0.84370  1.0000
  O   O26       1.0  0.80790  0.85920  0.70570  1.0000
  O   O27       1.0  0.68400  0.60520  0.79990  1.0000
  O   O28       1.0  0.86610  0.68029  0.67220  1.0000
  C   C13       1.0  0.69880  0.71100  0.79390  1.0000
  C   C14       1.0  0.80020  0.75480  0.71780  1.0000
  O   O29       1.0  0.86050  0.28460  0.65630  1.0000
  O   O30       1.0  0.69210  0.35920  0.79430  1.0000
  O   O31       1.0  0.81600  0.10520  0.70010  1.0000
  O   O32       1.0  0.63390  0.18029  0.82780  1.0000
  C   C15       1.0  0.80120  0.21100  0.70610  1.0000
  C   C16       1.0  0.69980  0.25480  0.78220  1.0000
  Eu  Eu1       1.0  0.28617  0.01554  0.16909  1.0000
  Eu  Eu2       1.0  0.21383  0.51554  0.33091  1.0000
  Eu  Eu3       1.0  0.71383  0.98446  0.83091  1.0000
  Eu  Eu4       1.0  0.78617  0.48446  0.66909  1.0000
