data_image0
_chemical_formula_structural       PO3C10O2POP2O3C10O4CO2PO3C9PC9O3P2O3CLa4PO3C10O2POP2O3C10O4CO2PO3C9PC9O3P2O3CLa4
_chemical_formula_sum              "P16 O48 C80 La8"
_cell_length_a       11.2662
_cell_length_b       20.1972
_cell_length_c       8.4021
_cell_angle_alpha    90
_cell_angle_beta     108.657
_cell_angle_gamma    90

_space_group_name_H-M_alt    "P 1"
_space_group_IT_number       1

loop_
  _space_group_symop_operation_xyz
  'x, y, z'

loop_
  _atom_site_type_symbol
  _atom_site_label
  _atom_site_symmetry_multiplicity
  _atom_site_fract_x
  _atom_site_fract_y
  _atom_site_fract_z
  _atom_site_occupancy
  P   P1        1.0  0.31888  0.15576  0.50916  1.0000
  O   O1        1.0  0.39235  0.17296  0.69697  1.0000
  O   O2        1.0  0.39808  0.16416  0.39747  1.0000
  O   O3        1.0  0.19515  0.19297  0.46796  1.0000
  C   C1        1.0  0.36362  0.02520  0.62775  1.0000
  C   C2        1.0  0.36034  0.01704  0.47443  1.0000
  C   C3        1.0  0.16553  0.04912  0.53242  1.0000
  C   C4        1.0  0.17111  0.03989  0.38337  1.0000
  C   C5        1.0  0.28024  0.06725  0.50456  1.0000
  C   C6        1.0  0.13966  0.98296  0.52557  1.0000
  C   C7        1.0  0.33448  0.95088  0.46758  1.0000
  C   C8        1.0  0.32889  0.96011  0.61663  1.0000
  C   C9        1.0  0.13639  0.97480  0.37225  1.0000
  C   C10       1.0  0.21976  0.93275  0.49544  1.0000
  O   O4        1.0  0.30485  0.80703  0.53204  1.0000
  O   O5        1.0  0.10192  0.83583  0.60253  1.0000
  P   P2        1.0  0.18111  0.84424  0.49084  1.0000
  O   O6        1.0  0.10764  0.82704  0.30303  1.0000
  P   P3        1.0  0.43112  0.34424  0.49084  1.0000
  P   P4        1.0  0.06888  0.65576  0.50916  1.0000
  O   O7        1.0  0.14236  0.67296  0.69697  1.0000
  O   O8        1.0  0.14808  0.66416  0.39747  1.0000
  O   O9        1.0  0.44515  0.69297  0.46796  1.0000
  C   C11       1.0  0.11362  0.52520  0.62775  1.0000
  C   C12       1.0  0.11034  0.51704  0.47443  1.0000
  C   C13       1.0  0.41552  0.54912  0.53242  1.0000
  C   C14       1.0  0.42112  0.53989  0.38337  1.0000
  C   C15       1.0  0.03024  0.56725  0.50456  1.0000
  C   C16       1.0  0.38966  0.48296  0.52557  1.0000
  C   C17       1.0  0.08447  0.45088  0.46758  1.0000
  C   C18       1.0  0.07889  0.46011  0.61663  1.0000
  C   C19       1.0  0.38638  0.47480  0.37225  1.0000
  C   C20       1.0  0.46976  0.43275  0.49544  1.0000
  O   O10       1.0  0.35764  0.32704  0.30303  1.0000
  O   O11       1.0  0.35192  0.33583  0.60253  1.0000
  O   O12       1.0  0.05485  0.30703  0.53204  1.0000
  O   O13       1.0  0.39808  0.83583  0.89747  1.0000
  C   C21       1.0  0.36362  0.97480  0.12775  1.0000
  O   O14       1.0  0.39235  0.82704  0.19697  1.0000
  O   O15       1.0  0.19515  0.80703  0.96796  1.0000
  P   P5        1.0  0.18112  0.15576  0.99084  1.0000
  O   O16       1.0  0.10765  0.17296  0.80303  1.0000
  O   O17       1.0  0.10192  0.16416  0.10253  1.0000
  O   O18       1.0  0.30485  0.19297  0.03204  1.0000
  C   C22       1.0  0.13638  0.02520  0.87225  1.0000
  C   C23       1.0  0.13966  0.01704  0.02557  1.0000
  C   C24       1.0  0.33447  0.04912  0.96758  1.0000
  C   C25       1.0  0.32888  0.03989  0.11663  1.0000
  C   C26       1.0  0.21976  0.06725  0.99544  1.0000
  C   C27       1.0  0.36034  0.98296  0.97443  1.0000
  C   C28       1.0  0.16553  0.95088  0.03242  1.0000
  C   C29       1.0  0.17111  0.96011  0.88337  1.0000
  C   C30       1.0  0.28024  0.93275  0.00456  1.0000
  P   P6        1.0  0.31888  0.84424  0.00916  1.0000
  C   C31       1.0  0.38966  0.51704  0.02557  1.0000
  C   C32       1.0  0.08447  0.54912  0.96758  1.0000
  C   C33       1.0  0.07888  0.53989  0.11663  1.0000
  C   C34       1.0  0.46976  0.56725  0.99544  1.0000
  C   C35       1.0  0.11034  0.48296  0.97443  1.0000
  C   C36       1.0  0.41552  0.45088  0.03242  1.0000
  C   C37       1.0  0.42112  0.46011  0.88337  1.0000
  C   C38       1.0  0.11361  0.47480  0.12775  1.0000
  C   C39       1.0  0.03024  0.43275  0.00456  1.0000
  O   O19       1.0  0.14808  0.33583  0.89747  1.0000
  O   O20       1.0  0.14236  0.32704  0.19697  1.0000
  O   O21       1.0  0.44515  0.30703  0.96796  1.0000
  P   P7        1.0  0.06889  0.34424  0.00916  1.0000
  P   P8        1.0  0.43112  0.65576  0.99084  1.0000
  O   O22       1.0  0.35765  0.67296  0.80303  1.0000
  O   O23       1.0  0.35192  0.66416  0.10253  1.0000
  O   O24       1.0  0.05485  0.69297  0.03204  1.0000
  C   C40       1.0  0.38638  0.52520  0.87225  1.0000
  La  La1       1.0  0.25000  0.26725  0.75000  1.0000
  La  La2       1.0  0.00000  0.76725  0.75000  1.0000
  La  La3       1.0  0.25000  0.73275  0.25000  1.0000
  La  La4       1.0  0.00000  0.23275  0.25000  1.0000
  P   P9        1.0  0.81888  0.15576  0.50916  1.0000
  O   O25       1.0  0.89235  0.17296  0.69697  1.0000
  O   O26       1.0  0.89808  0.16416  0.39747  1.0000
  O   O27       1.0  0.69515  0.19297  0.46796  1.0000
  C   C41       1.0  0.86361  0.02520  0.62775  1.0000
  C   C42       1.0  0.86034  0.01704  0.47443  1.0000
  C   C43       1.0  0.66552  0.04912  0.53242  1.0000
  C   C44       1.0  0.67111  0.03989  0.38337  1.0000
  C   C45       1.0  0.78024  0.06725  0.50456  1.0000
  C   C46       1.0  0.63966  0.98296  0.52557  1.0000
  C   C47       1.0  0.83447  0.95088  0.46758  1.0000
  C   C48       1.0  0.82888  0.96011  0.61663  1.0000
  C   C49       1.0  0.63638  0.97480  0.37225  1.0000
  C   C50       1.0  0.71976  0.93275  0.49544  1.0000
  O   O28       1.0  0.80485  0.80703  0.53204  1.0000
  O   O29       1.0  0.60192  0.83583  0.60253  1.0000
  P   P10       1.0  0.68111  0.84424  0.49084  1.0000
  O   O30       1.0  0.60764  0.82704  0.30303  1.0000
  P   P11       1.0  0.93112  0.34424  0.49084  1.0000
  P   P12       1.0  0.56888  0.65576  0.50916  1.0000
  O   O31       1.0  0.64236  0.67296  0.69697  1.0000
  O   O32       1.0  0.64808  0.66416  0.39747  1.0000
  O   O33       1.0  0.94515  0.69297  0.46796  1.0000
  C   C51       1.0  0.61361  0.52520  0.62775  1.0000
  C   C52       1.0  0.61034  0.51704  0.47443  1.0000
  C   C53       1.0  0.91553  0.54912  0.53242  1.0000
  C   C54       1.0  0.92112  0.53989  0.38337  1.0000
  C   C55       1.0  0.53024  0.56725  0.50456  1.0000
  C   C56       1.0  0.88966  0.48296  0.52557  1.0000
  C   C57       1.0  0.58447  0.45088  0.46758  1.0000
  C   C58       1.0  0.57889  0.46011  0.61663  1.0000
  C   C59       1.0  0.88638  0.47480  0.37225  1.0000
  C   C60       1.0  0.96976  0.43275  0.49544  1.0000
  O   O34       1.0  0.85764  0.32704  0.30303  1.0000
  O   O35       1.0  0.85192  0.33583  0.60253  1.0000
  O   O36       1.0  0.55485  0.30703  0.53204  1.0000
  O   O37       1.0  0.89808  0.83583  0.89747  1.0000
  C   C61       1.0  0.86361  0.97480  0.12775  1.0000
  O   O38       1.0  0.89235  0.82704  0.19697  1.0000
  O   O39       1.0  0.69515  0.80703  0.96796  1.0000
  P   P13       1.0  0.68111  0.15576  0.99084  1.0000
  O   O40       1.0  0.60764  0.17296  0.80303  1.0000
  O   O41       1.0  0.60192  0.16416  0.10253  1.0000
  O   O42       1.0  0.80485  0.19297  0.03204  1.0000
  C   C62       1.0  0.63638  0.02520  0.87225  1.0000
  C   C63       1.0  0.63966  0.01704  0.02557  1.0000
  C   C64       1.0  0.83447  0.04912  0.96758  1.0000
  C   C65       1.0  0.82888  0.03989  0.11663  1.0000
  C   C66       1.0  0.71976  0.06725  0.99544  1.0000
  C   C67       1.0  0.86034  0.98296  0.97443  1.0000
  C   C68       1.0  0.66552  0.95088  0.03242  1.0000
  C   C69       1.0  0.67111  0.96011  0.88337  1.0000
  C   C70       1.0  0.78024  0.93275  0.00456  1.0000
  P   P14       1.0  0.81888  0.84424  0.00916  1.0000
  C   C71       1.0  0.88966  0.51704  0.02557  1.0000
  C   C72       1.0  0.58447  0.54912  0.96758  1.0000
  C   C73       1.0  0.57888  0.53989  0.11663  1.0000
  C   C74       1.0  0.96976  0.56725  0.99544  1.0000
  C   C75       1.0  0.61034  0.48296  0.97443  1.0000
  C   C76       1.0  0.91552  0.45088  0.03242  1.0000
  C   C77       1.0  0.92111  0.46011  0.88337  1.0000
  C   C78       1.0  0.61361  0.47480  0.12775  1.0000
  C   C79       1.0  0.53024  0.43275  0.00456  1.0000
  O   O43       1.0  0.64808  0.33583  0.89747  1.0000
  O   O44       1.0  0.64236  0.32704  0.19697  1.0000
  O   O45       1.0  0.94515  0.30703  0.96796  1.0000
  P   P15       1.0  0.56888  0.34424  0.00916  1.0000
  P   P16       1.0  0.93111  0.65576  0.99084  1.0000
  O   O46       1.0  0.85765  0.67296  0.80303  1.0000
  O   O47       1.0  0.85192  0.66416  0.10253  1.0000
  O   O48       1.0  0.55485  0.69297  0.03204  1.0000
  C   C80       1.0  0.88638  0.52520  0.87225  1.0000
  La  La5       1.0  0.75000  0.26725  0.75000  1.0000
  La  La6       1.0  0.50000  0.76725  0.75000  1.0000
  La  La7       1.0  0.75000  0.73275  0.25000  1.0000
  La  La8       1.0  0.50000  0.23275  0.25000  1.0000
