data_image0
_chemical_formula_structural       P2O3CO3CNC3P2O3CO3CNC5P2O3CO3CNC3P2O3CO3CNC5P2O3CO3CNC3P2O3CO3CNC5P2O3CO3CNC3P2O3CO3CNC5Zn4
_chemical_formula_sum              "P16 O48 C48 N8 Zn4"
_cell_length_a       22.3117
_cell_length_b       10.0175
_cell_length_c       8.6021
_cell_angle_alpha    90
_cell_angle_beta     90
_cell_angle_gamma    90

_space_group_name_H-M_alt    "P 1"
_space_group_IT_number       1

loop_
  _space_group_symop_operation_xyz
  'x, y, z'

loop_
  _atom_site_type_symbol
  _atom_site_label
  _atom_site_symmetry_multiplicity
  _atom_site_fract_x
  _atom_site_fract_y
  _atom_site_fract_z
  _atom_site_occupancy
  P   P1        1.0  0.47777  0.29600  0.31230  1.0000
  P   P2        1.0  0.64444  0.40470  0.12760  1.0000
  O   O1        1.0  0.47870  0.34140  0.14150  1.0000
  O   O2        1.0  0.48450  0.14350  0.31790  1.0000
  O   O3        1.0  0.41924  0.34010  0.39250  1.0000
  C   C1        1.0  0.53980  0.37320  0.41330  1.0000
  O   O4        1.0  0.69330  0.48960  0.20660  1.0000
  O   O5        1.0  0.66770  0.33470  0.97960  1.0000
  O   O6        1.0  0.59085  0.49510  0.08860  1.0000
  C   C2        1.0  0.62200  0.27520  0.26160  1.0000
  N   N1        1.0  0.59914  0.30400  0.42050  1.0000
  C   C3        1.0  0.64270  0.37860  0.51900  1.0000
  C   C4        1.0  0.69611  0.29400  0.55980  1.0000
  C   C5        1.0  0.69618  0.16340  0.61730  1.0000
  P   P3        1.0  0.02223  0.29600  0.31230  1.0000
  P   P4        1.0  0.85556  0.40470  0.12760  1.0000
  O   O7        1.0  0.02130  0.34140  0.14150  1.0000
  O   O8        1.0  0.01550  0.14350  0.31790  1.0000
  O   O9        1.0  0.08076  0.34010  0.39250  1.0000
  C   C6        1.0  0.96020  0.37320  0.41330  1.0000
  O   O10       1.0  0.80670  0.48960  0.20660  1.0000
  O   O11       1.0  0.83230  0.33470  0.97960  1.0000
  O   O12       1.0  0.90915  0.49510  0.08860  1.0000
  C   C7        1.0  0.87800  0.27520  0.26160  1.0000
  N   N2        1.0  0.90086  0.30400  0.42050  1.0000
  C   C8        1.0  0.85730  0.37860  0.51900  1.0000
  C   C9        1.0  0.80389  0.29400  0.55980  1.0000
  C   C10       1.0  0.80382  0.16340  0.61730  1.0000
  C   C11       1.0  0.75000  0.34850  0.50760  1.0000
  C   C12       1.0  0.75000  0.10910  0.67140  1.0000
  P   P5        1.0  0.52223  0.20400  0.81230  1.0000
  P   P6        1.0  0.35556  0.09530  0.62760  1.0000
  O   O13       1.0  0.52130  0.15860  0.64150  1.0000
  O   O14       1.0  0.51550  0.35650  0.81790  1.0000
  O   O15       1.0  0.58076  0.15990  0.89250  1.0000
  C   C13       1.0  0.46020  0.12680  0.91330  1.0000
  O   O16       1.0  0.30670  0.01040  0.70660  1.0000
  O   O17       1.0  0.33230  0.16530  0.47960  1.0000
  O   O18       1.0  0.40915  0.00490  0.58860  1.0000
  C   C14       1.0  0.37800  0.22480  0.76160  1.0000
  N   N3        1.0  0.40086  0.19600  0.92050  1.0000
  C   C15       1.0  0.35730  0.12140  0.01900  1.0000
  C   C16       1.0  0.30389  0.20600  0.05980  1.0000
  C   C17       1.0  0.30382  0.33660  0.11730  1.0000
  P   P7        1.0  0.97777  0.20400  0.81230  1.0000
  P   P8        1.0  0.14444  0.09530  0.62760  1.0000
  O   O19       1.0  0.97870  0.15860  0.64150  1.0000
  O   O20       1.0  0.98450  0.35650  0.81790  1.0000
  O   O21       1.0  0.91924  0.15990  0.89250  1.0000
  C   C18       1.0  0.03980  0.12680  0.91330  1.0000
  O   O22       1.0  0.19330  0.01040  0.70660  1.0000
  O   O23       1.0  0.16770  0.16530  0.47960  1.0000
  O   O24       1.0  0.09085  0.00490  0.58860  1.0000
  C   C19       1.0  0.12200  0.22480  0.76160  1.0000
  N   N4        1.0  0.09914  0.19600  0.92050  1.0000
  C   C20       1.0  0.14270  0.12140  0.01900  1.0000
  C   C21       1.0  0.19611  0.20600  0.05980  1.0000
  C   C22       1.0  0.19618  0.33660  0.11730  1.0000
  C   C23       1.0  0.25000  0.15150  0.00760  1.0000
  C   C24       1.0  0.25000  0.39090  0.17140  1.0000
  P   P9        1.0  0.97777  0.70400  0.68770  1.0000
  P   P10       1.0  0.14444  0.59530  0.87240  1.0000
  O   O25       1.0  0.97870  0.65860  0.85850  1.0000
  O   O26       1.0  0.98450  0.85650  0.68210  1.0000
  O   O27       1.0  0.91924  0.65990  0.60750  1.0000
  C   C25       1.0  0.03980  0.62680  0.58670  1.0000
  O   O28       1.0  0.19330  0.51040  0.79340  1.0000
  O   O29       1.0  0.16770  0.66530  0.02040  1.0000
  O   O30       1.0  0.09085  0.50490  0.91140  1.0000
  C   C26       1.0  0.12200  0.72480  0.73840  1.0000
  N   N5        1.0  0.09914  0.69600  0.57950  1.0000
  C   C27       1.0  0.14270  0.62140  0.48100  1.0000
  C   C28       1.0  0.19611  0.70600  0.44020  1.0000
  C   C29       1.0  0.19618  0.83660  0.38270  1.0000
  P   P11       1.0  0.52223  0.70400  0.68770  1.0000
  P   P12       1.0  0.35556  0.59530  0.87240  1.0000
  O   O31       1.0  0.52130  0.65860  0.85850  1.0000
  O   O32       1.0  0.51550  0.85650  0.68210  1.0000
  O   O33       1.0  0.58076  0.65990  0.60750  1.0000
  C   C30       1.0  0.46020  0.62680  0.58670  1.0000
  O   O34       1.0  0.30670  0.51040  0.79340  1.0000
  O   O35       1.0  0.33230  0.66530  0.02040  1.0000
  O   O36       1.0  0.40915  0.50490  0.91140  1.0000
  C   C31       1.0  0.37800  0.72480  0.73840  1.0000
  N   N6        1.0  0.40086  0.69600  0.57950  1.0000
  C   C32       1.0  0.35730  0.62140  0.48100  1.0000
  C   C33       1.0  0.30389  0.70600  0.44020  1.0000
  C   C34       1.0  0.30382  0.83660  0.38270  1.0000
  C   C35       1.0  0.25000  0.65150  0.49240  1.0000
  C   C36       1.0  0.25000  0.89090  0.32860  1.0000
  P   P13       1.0  0.02223  0.79600  0.18770  1.0000
  P   P14       1.0  0.85556  0.90470  0.37240  1.0000
  O   O37       1.0  0.02130  0.84140  0.35850  1.0000
  O   O38       1.0  0.01550  0.64350  0.18210  1.0000
  O   O39       1.0  0.08076  0.84010  0.10750  1.0000
  C   C37       1.0  0.96020  0.87320  0.08670  1.0000
  O   O40       1.0  0.80670  0.98960  0.29340  1.0000
  O   O41       1.0  0.83230  0.83470  0.52040  1.0000
  O   O42       1.0  0.90915  0.99510  0.41140  1.0000
  C   C38       1.0  0.87800  0.77520  0.23840  1.0000
  N   N7        1.0  0.90086  0.80400  0.07950  1.0000
  C   C39       1.0  0.85730  0.87860  0.98100  1.0000
  C   C40       1.0  0.80389  0.79400  0.94020  1.0000
  C   C41       1.0  0.80382  0.66340  0.88270  1.0000
  P   P15       1.0  0.47777  0.79600  0.18770  1.0000
  P   P16       1.0  0.64444  0.90470  0.37240  1.0000
  O   O43       1.0  0.47870  0.84140  0.35850  1.0000
  O   O44       1.0  0.48450  0.64350  0.18210  1.0000
  O   O45       1.0  0.41924  0.84010  0.10750  1.0000
  C   C42       1.0  0.53980  0.87320  0.08670  1.0000
  O   O46       1.0  0.69330  0.98960  0.29340  1.0000
  O   O47       1.0  0.66770  0.83470  0.52040  1.0000
  O   O48       1.0  0.59085  0.99510  0.41140  1.0000
  C   C43       1.0  0.62200  0.77520  0.23840  1.0000
  N   N8        1.0  0.59914  0.80400  0.07950  1.0000
  C   C44       1.0  0.64270  0.87860  0.98100  1.0000
  C   C45       1.0  0.69611  0.79400  0.94020  1.0000
  C   C46       1.0  0.69618  0.66340  0.88270  1.0000
  C   C47       1.0  0.75000  0.84850  0.99240  1.0000
  C   C48       1.0  0.75000  0.60910  0.82860  1.0000
  Zn  Zn1       1.0  0.50000  0.50000  0.00000  1.0000
  Zn  Zn2       1.0  0.50000  0.00000  0.50000  1.0000
  Zn  Zn3       1.0  0.00000  0.50000  0.00000  1.0000
  Zn  Zn4       1.0  0.00000  0.00000  0.50000  1.0000
