data_image0
_chemical_formula_structural       P2O3CO3CNC4P2O3CO3CNC4MgP2O3CO3CNC4P2O3CO3CNC4MgP2O3CO3CNC4P2O3CO3CNC4MgP2O3CO3CNC4P2O3CO3CNC4Mg
_chemical_formula_sum              "P16 O48 C48 N8 Mg4"
_cell_length_a       13.9098
_cell_length_b       15.14
_cell_length_c       10.6511
_cell_angle_alpha    87.071
_cell_angle_beta     81.018
_cell_angle_gamma    73.831

_space_group_name_H-M_alt    "P 1"
_space_group_IT_number       1

loop_
  _space_group_symop_operation_xyz
  'x, y, z'

loop_
  _atom_site_type_symbol
  _atom_site_label
  _atom_site_symmetry_multiplicity
  _atom_site_fract_x
  _atom_site_fract_y
  _atom_site_fract_z
  _atom_site_occupancy
  P   P1        1.0  0.34455  0.17205  0.11360  1.0000
  P   P2        1.0  0.21915  0.49410  0.30350  1.0000
  O   O1        1.0  0.28380  0.12740  0.04790  1.0000
  O   O2        1.0  0.27720  0.24030  0.22050  1.0000
  O   O3        1.0  0.41785  0.21375  0.02490  1.0000
  C   C1        1.0  0.42035  0.08195  0.20430  1.0000
  O   O4        1.0  0.19190  0.01690  0.17380  1.0000
  O   O5        1.0  0.11820  0.03350  0.40360  1.0000
  O   O6        1.0  0.24400  0.39830  0.34930  1.0000
  C   C2        1.0  0.27395  0.08525  0.31520  1.0000
  N   N1        1.0  0.37445  0.09025  0.34120  1.0000
  C   C3        1.0  0.36080  0.18325  0.40140  1.0000
  C   C4        1.0  0.44255  0.19460  0.46890  1.0000
  C   C5        1.0  0.04050  0.18700  0.40310  1.0000
  C   C6        1.0  0.41300  0.24300  0.58060  1.0000
  P   P3        1.0  0.15545  0.32795  0.88640  1.0000
  P   P4        1.0  0.28085  0.00590  0.69650  1.0000
  O   O7        1.0  0.21620  0.37260  0.95210  1.0000
  O   O8        1.0  0.22280  0.25970  0.77950  1.0000
  O   O9        1.0  0.08215  0.28625  0.97510  1.0000
  C   C7        1.0  0.07965  0.41805  0.79570  1.0000
  O   O10       1.0  0.30810  0.48310  0.82620  1.0000
  O   O11       1.0  0.38180  0.46650  0.59640  1.0000
  O   O12       1.0  0.25600  0.10170  0.65070  1.0000
  C   C8        1.0  0.22605  0.41475  0.68480  1.0000
  N   N2        1.0  0.12555  0.40975  0.65880  1.0000
  C   C9        1.0  0.13920  0.31675  0.59860  1.0000
  C   C10       1.0  0.05745  0.30540  0.53110  1.0000
  C   C11       1.0  0.45950  0.31300  0.59690  1.0000
  C   C12       1.0  0.08700  0.25700  0.41940  1.0000
  Mg  Mg1       1.0  0.25000  0.00000  0.00000  1.0000
  P   P5        1.0  0.34455  0.67205  0.11360  1.0000
  P   P6        1.0  0.21915  0.99410  0.30350  1.0000
  O   O13       1.0  0.28380  0.62740  0.04790  1.0000
  O   O14       1.0  0.27720  0.74030  0.22050  1.0000
  O   O15       1.0  0.41785  0.71375  0.02490  1.0000
  C   C13       1.0  0.42035  0.58195  0.20430  1.0000
  O   O16       1.0  0.19190  0.51690  0.17380  1.0000
  O   O17       1.0  0.11820  0.53350  0.40360  1.0000
  O   O18       1.0  0.24400  0.89830  0.34930  1.0000
  C   C14       1.0  0.27395  0.58525  0.31520  1.0000
  N   N3        1.0  0.37445  0.59025  0.34120  1.0000
  C   C15       1.0  0.36080  0.68325  0.40140  1.0000
  C   C16       1.0  0.44255  0.69460  0.46890  1.0000
  C   C17       1.0  0.04050  0.68700  0.40310  1.0000
  C   C18       1.0  0.41300  0.74300  0.58060  1.0000
  P   P7        1.0  0.15545  0.82795  0.88640  1.0000
  P   P8        1.0  0.28085  0.50590  0.69650  1.0000
  O   O19       1.0  0.21620  0.87260  0.95210  1.0000
  O   O20       1.0  0.22280  0.75970  0.77950  1.0000
  O   O21       1.0  0.08215  0.78625  0.97510  1.0000
  C   C19       1.0  0.07965  0.91805  0.79570  1.0000
  O   O22       1.0  0.30810  0.98310  0.82620  1.0000
  O   O23       1.0  0.38180  0.96650  0.59640  1.0000
  O   O24       1.0  0.25600  0.60170  0.65070  1.0000
  C   C20       1.0  0.22605  0.91475  0.68480  1.0000
  N   N4        1.0  0.12555  0.90975  0.65880  1.0000
  C   C21       1.0  0.13920  0.81675  0.59860  1.0000
  C   C22       1.0  0.05745  0.80540  0.53110  1.0000
  C   C23       1.0  0.45950  0.81300  0.59690  1.0000
  C   C24       1.0  0.08700  0.75700  0.41940  1.0000
  Mg  Mg2       1.0  0.25000  0.50000  0.00000  1.0000
  P   P9        1.0  0.84455  0.17205  0.11360  1.0000
  P   P10       1.0  0.71915  0.49410  0.30350  1.0000
  O   O25       1.0  0.78380  0.12740  0.04790  1.0000
  O   O26       1.0  0.77720  0.24030  0.22050  1.0000
  O   O27       1.0  0.91785  0.21375  0.02490  1.0000
  C   C25       1.0  0.92035  0.08195  0.20430  1.0000
  O   O28       1.0  0.69190  0.01690  0.17380  1.0000
  O   O29       1.0  0.61820  0.03350  0.40360  1.0000
  O   O30       1.0  0.74400  0.39830  0.34930  1.0000
  C   C26       1.0  0.77395  0.08525  0.31520  1.0000
  N   N5        1.0  0.87445  0.09025  0.34120  1.0000
  C   C27       1.0  0.86080  0.18325  0.40140  1.0000
  C   C28       1.0  0.94255  0.19460  0.46890  1.0000
  C   C29       1.0  0.54050  0.18700  0.40310  1.0000
  C   C30       1.0  0.91300  0.24300  0.58060  1.0000
  P   P11       1.0  0.65545  0.32795  0.88640  1.0000
  P   P12       1.0  0.78085  0.00590  0.69650  1.0000
  O   O31       1.0  0.71620  0.37260  0.95210  1.0000
  O   O32       1.0  0.72280  0.25970  0.77950  1.0000
  O   O33       1.0  0.58215  0.28625  0.97510  1.0000
  C   C31       1.0  0.57965  0.41805  0.79570  1.0000
  O   O34       1.0  0.80810  0.48310  0.82620  1.0000
  O   O35       1.0  0.88180  0.46650  0.59640  1.0000
  O   O36       1.0  0.75600  0.10170  0.65070  1.0000
  C   C32       1.0  0.72605  0.41475  0.68480  1.0000
  N   N6        1.0  0.62555  0.40975  0.65880  1.0000
  C   C33       1.0  0.63920  0.31675  0.59860  1.0000
  C   C34       1.0  0.55745  0.30540  0.53110  1.0000
  C   C35       1.0  0.95950  0.31300  0.59690  1.0000
  C   C36       1.0  0.58700  0.25700  0.41940  1.0000
  Mg  Mg3       1.0  0.75000  0.00000  0.00000  1.0000
  P   P13       1.0  0.84455  0.67205  0.11360  1.0000
  P   P14       1.0  0.71915  0.99410  0.30350  1.0000
  O   O37       1.0  0.78380  0.62740  0.04790  1.0000
  O   O38       1.0  0.77720  0.74030  0.22050  1.0000
  O   O39       1.0  0.91785  0.71375  0.02490  1.0000
  C   C37       1.0  0.92035  0.58195  0.20430  1.0000
  O   O40       1.0  0.69190  0.51690  0.17380  1.0000
  O   O41       1.0  0.61820  0.53350  0.40360  1.0000
  O   O42       1.0  0.74400  0.89830  0.34930  1.0000
  C   C38       1.0  0.77395  0.58525  0.31520  1.0000
  N   N7        1.0  0.87445  0.59025  0.34120  1.0000
  C   C39       1.0  0.86080  0.68325  0.40140  1.0000
  C   C40       1.0  0.94255  0.69460  0.46890  1.0000
  C   C41       1.0  0.54050  0.68700  0.40310  1.0000
  C   C42       1.0  0.91300  0.74300  0.58060  1.0000
  P   P15       1.0  0.65545  0.82795  0.88640  1.0000
  P   P16       1.0  0.78085  0.50590  0.69650  1.0000
  O   O43       1.0  0.71620  0.87260  0.95210  1.0000
  O   O44       1.0  0.72280  0.75970  0.77950  1.0000
  O   O45       1.0  0.58215  0.78625  0.97510  1.0000
  C   C43       1.0  0.57965  0.91805  0.79570  1.0000
  O   O46       1.0  0.80810  0.98310  0.82620  1.0000
  O   O47       1.0  0.88180  0.96650  0.59640  1.0000
  O   O48       1.0  0.75600  0.60170  0.65070  1.0000
  C   C44       1.0  0.72605  0.91475  0.68480  1.0000
  N   N8        1.0  0.62555  0.90975  0.65880  1.0000
  C   C45       1.0  0.63920  0.81675  0.59860  1.0000
  C   C46       1.0  0.55745  0.80540  0.53110  1.0000
  C   C47       1.0  0.95950  0.81300  0.59690  1.0000
  C   C48       1.0  0.58700  0.75700  0.41940  1.0000
  Mg  Mg4       1.0  0.75000  0.50000  0.00000  1.0000
