data_image0
_chemical_formula_structural       O4PC2O5PO3C2PO4C2O2PCO3CO7PC2O8PC2PO6C2PO6C2La6
_chemical_formula_sum              "O48 P8 C16 La6"
_cell_length_a       11.1155
_cell_length_b       13.4679
_cell_length_c       16.0168
_cell_angle_alpha    114.862
_cell_angle_beta     110.304
_cell_angle_gamma    90

_space_group_name_H-M_alt    "P 1"
_space_group_IT_number       1

loop_
  _space_group_symop_operation_xyz
  'x, y, z'

loop_
  _atom_site_type_symbol
  _atom_site_label
  _atom_site_symmetry_multiplicity
  _atom_site_fract_x
  _atom_site_fract_y
  _atom_site_fract_z
  _atom_site_occupancy
  O   O1        1.0  0.76780  0.92980  0.28980  1.0000
  O   O2        1.0  0.83540  0.21210  0.45480  1.0000
  O   O3        1.0  0.09820  0.06210  0.48520  1.0000
  O   O4        1.0  0.10730  0.20410  0.45920  1.0000
  P   P1        1.0  0.77740  0.00260  0.39680  1.0000
  C   C1        1.0  0.90090  0.12450  0.45620  1.0000
  C   C2        1.0  0.03860  0.13490  0.46480  1.0000
  O   O5        1.0  0.65270  0.04440  0.40800  1.0000
  O   O6        1.0  0.81320  0.92440  0.44660  1.0000
  O   O7        1.0  0.93420  0.86810  0.24040  1.0000
  O   O8        1.0  0.11200  0.79860  0.16580  1.0000
  O   O9        1.0  0.93430  0.89250  0.09260  1.0000
  P   P2        1.0  0.01850  0.88320  0.18720  1.0000
  O   O10       1.0  0.21270  0.99730  0.35240  1.0000
  O   O11       1.0  0.30940  0.08060  0.26740  1.0000
  O   O12       1.0  0.18290  0.95080  0.12640  1.0000
  C   C3        1.0  0.12490  0.01510  0.27380  1.0000
  C   C4        1.0  0.19700  0.02330  0.21260  1.0000
  P   P3        1.0  0.38060  0.99740  0.60320  1.0000
  O   O13       1.0  0.24470  0.95560  0.59200  1.0000
  O   O14       1.0  0.36660  0.07560  0.55340  1.0000
  O   O15       1.0  0.47800  0.07020  0.71020  1.0000
  O   O16       1.0  0.38060  0.78790  0.54520  1.0000
  C   C5        1.0  0.44470  0.87550  0.54380  1.0000
  C   C6        1.0  0.57380  0.86510  0.53520  1.0000
  O   O17       1.0  0.64810  0.79590  0.54080  1.0000
  O   O18       1.0  0.61300  0.93790  0.51480  1.0000
  P   P4        1.0  0.83130  0.11680  0.81280  1.0000
  C   C7        1.0  0.85110  0.98490  0.72620  1.0000
  O   O19       1.0  0.69380  0.13190  0.75960  1.0000
  O   O20       1.0  0.94620  0.20140  0.83420  1.0000
  O   O21       1.0  0.84170  0.10750  0.90740  1.0000
  C   C8        1.0  0.98440  0.97670  0.78740  1.0000
  O   O22       1.0  0.86030  0.00270  0.64760  1.0000
  O   O23       1.0  0.04200  0.91940  0.73260  1.0000
  O   O24       1.0  0.05650  0.04920  0.87360  1.0000
  O   O25       1.0  0.97800  0.64000  0.71020  1.0000
  O   O26       1.0  0.88060  0.75730  0.54520  1.0000
  O   O27       1.0  0.11300  0.57690  0.51480  1.0000
  O   O28       1.0  0.14810  0.74490  0.54080  1.0000
  P   P5        1.0  0.88060  0.60580  0.60320  1.0000
  C   C9        1.0  0.94470  0.66830  0.54380  1.0000
  C   C10       1.0  0.07380  0.67010  0.53520  1.0000
  O   O29       1.0  0.74470  0.63640  0.59200  1.0000
  O   O30       1.0  0.86660  0.47780  0.55340  1.0000
  O   O31       1.0  0.19380  0.62770  0.75960  1.0000
  O   O32       1.0  0.44620  0.63280  0.83420  1.0000
  O   O33       1.0  0.34170  0.79990  0.90740  1.0000
  O   O34       1.0  0.36030  0.64490  0.64760  1.0000
  O   O35       1.0  0.54200  0.81320  0.73260  1.0000
  O   O36       1.0  0.55650  0.82440  0.87360  1.0000
  P   P6        1.0  0.33130  0.69600  0.81280  1.0000
  C   C11       1.0  0.35110  0.74130  0.72620  1.0000
  C   C12       1.0  0.48440  0.81070  0.78740  1.0000
  P   P7        1.0  0.27740  0.39420  0.39680  1.0000
  O   O37       1.0  0.15270  0.36360  0.40800  1.0000
  O   O38       1.0  0.31320  0.52220  0.44660  1.0000
  O   O39       1.0  0.26780  0.36000  0.28980  1.0000
  O   O40       1.0  0.33540  0.24270  0.45480  1.0000
  O   O41       1.0  0.59820  0.42310  0.48520  1.0000
  O   O42       1.0  0.60730  0.25510  0.45920  1.0000
  C   C13       1.0  0.40090  0.33170  0.45620  1.0000
  C   C14       1.0  0.53860  0.32990  0.46480  1.0000
  P   P8        1.0  0.51850  0.30400  0.18720  1.0000
  O   O43       1.0  0.43420  0.37230  0.24040  1.0000
  O   O44       1.0  0.61200  0.36720  0.16580  1.0000
  O   O45       1.0  0.43430  0.20010  0.09260  1.0000
  O   O46       1.0  0.71270  0.35510  0.35240  1.0000
  O   O47       1.0  0.80940  0.18680  0.26740  1.0000
  O   O48       1.0  0.68290  0.17560  0.12640  1.0000
  C   C15       1.0  0.62490  0.25870  0.27380  1.0000
  C   C16       1.0  0.69700  0.18930  0.21260  1.0000
  La  La1       1.0  0.45869  0.07069  0.44138  1.0000
  La  La2       1.0  0.01731  0.92931  0.55862  1.0000
  La  La3       1.0  0.51731  0.62931  0.55862  1.0000
  La  La4       1.0  0.95869  0.37069  0.44138  1.0000
  La  La5       1.0  0.95360  0.00000  0.00000  1.0000
  La  La6       1.0  0.45360  0.00000  0.00000  1.0000
