data_image0
_chemical_formula_structural       O3C2NC3NC3HCHCHCHOHCO5C2NC3NC3HCHCHCHOHCO5C2NC3NC3HCHCHCHOHCO2NC3HCHCHCHOHCO5C2NC3O3C2NC3NC3HCHCHCHOHCO5C2NC3NC3HCHCHCHOHCO3HCO5C2NC3NC3HCHCHCHO3C2NC3NC3HCHCHCHOHCO2NCHCHCHCHC2HNCHCHCHCHC2HNCHCHCHCHCNCHCHCHCHCHCHCNCHCHCHCHC2HNCHCHCHCHC2HNCHCHCHCHCNCHCHCHCHCHCHCCo12O3C2NC3NC3HCHCHCHOHCO5C2NC3NC3HCHCHCHOHCO5C2NC3NC3HCHCHCHOHCO2NC3HCHCHCHOHCO5C2NC3O3C2NC3NC3HCHCHCHOHCO5C2NC3NC3HCHCHCHOHCO3HCO5C2NC3NC3HCHCHCHO3C2NC3NC3HCHCHCHOHCO2NCHCHCHCHC2HNCHCHCHCHC2HNCHCHCHCHCNCHCHCHCHCHCHCNCHCHCHCHC2HNCHCHCHCHC2HNCHCHCHCHCNCHCHCHCHCHCHCCo12
_chemical_formula_sum              "O96 C288 N48 H160 Co24"
_cell_length_a       21.0518
_cell_length_b       15.6288
_cell_length_c       25.4452
_cell_angle_alpha    90
_cell_angle_beta     113.493
_cell_angle_gamma    90

_space_group_name_H-M_alt    "P 1"
_space_group_IT_number       1

loop_
  _space_group_symop_operation_xyz
  'x, y, z'

loop_
  _atom_site_type_symbol
  _atom_site_label
  _atom_site_symmetry_multiplicity
  _atom_site_fract_x
  _atom_site_fract_y
  _atom_site_fract_z
  _atom_site_occupancy
  O   O1        1.0  0.79311  0.34015  0.23731  1.0000
  O   O2        1.0  0.68912  0.47350  0.34807  1.0000
  O   O3        1.0  0.58010  0.43170  0.31633  1.0000
  C   C1        1.0  0.63718  0.43970  0.31061  1.0000
  C   C2        1.0  0.63700  0.40515  0.25623  1.0000
  N   N1        1.0  0.57357  0.38740  0.21348  1.0000
  C   C3        1.0  0.58734  0.35990  0.16904  1.0000
  C   C4        1.0  0.68664  0.38385  0.23647  1.0000
  C   C5        1.0  0.76348  0.38250  0.26263  1.0000
  N   N2        1.0  0.65515  0.35435  0.18128  1.0000
  C   C6        1.0  0.53438  0.34860  0.11018  1.0000
  C   C7        1.0  0.43842  0.33260  0.99726  1.0000
  C   C8        1.0  0.42940  0.28790  0.04082  1.0000
  H   H1        1.0  0.39150  0.25185  0.03230  1.0000
  C   C9        1.0  0.47700  0.29655  0.09743  1.0000
  H   H2        1.0  0.47010  0.26735  0.12660  1.0000
  C   C10       1.0  0.54360  0.39250  0.06616  1.0000
  H   H3        1.0  0.58230  0.42715  0.07440  1.0000
  C   C11       1.0  0.49570  0.38505  0.01034  1.0000
  H   H4        1.0  0.50190  0.41545  0.98130  1.0000
  O   O4        1.0  0.39956  0.37115  0.90036  1.0000
  H   H5        1.0  0.36640  0.36820  0.86930  1.0000
  C   C12       1.0  0.38897  0.32070  0.93725  1.0000
  O   O5        1.0  0.34313  0.26705  0.92334  1.0000
  O   O6        1.0  0.79579  0.42330  0.30863  1.0000
  O   O7        1.0  0.29311  0.09015  0.23731  1.0000
  O   O8        1.0  0.18912  0.22350  0.34807  1.0000
  O   O9        1.0  0.08010  0.18170  0.31633  1.0000
  C   C13       1.0  0.13718  0.18970  0.31061  1.0000
  C   C14       1.0  0.13700  0.15515  0.25623  1.0000
  N   N3        1.0  0.07357  0.13740  0.21348  1.0000
  C   C15       1.0  0.08734  0.10990  0.16904  1.0000
  C   C16       1.0  0.18664  0.13385  0.23647  1.0000
  C   C17       1.0  0.26348  0.13250  0.26263  1.0000
  N   N4        1.0  0.15515  0.10435  0.18128  1.0000
  C   C18       1.0  0.03438  0.09860  0.11018  1.0000
  C   C19       1.0  0.93842  0.08260  0.99726  1.0000
  C   C20       1.0  0.92940  0.03790  0.04082  1.0000
  H   H6        1.0  0.89150  0.00185  0.03230  1.0000
  C   C21       1.0  0.97700  0.04655  0.09743  1.0000
  H   H7        1.0  0.97010  0.01735  0.12660  1.0000
  C   C22       1.0  0.04360  0.14250  0.06616  1.0000
  H   H8        1.0  0.08230  0.17715  0.07440  1.0000
  C   C23       1.0  0.99570  0.13505  0.01034  1.0000
  H   H9        1.0  0.00190  0.16545  0.98130  1.0000
  O   O10       1.0  0.89956  0.12115  0.90036  1.0000
  H   H10       1.0  0.86640  0.11820  0.86930  1.0000
  C   C24       1.0  0.88897  0.07070  0.93725  1.0000
  O   O11       1.0  0.84313  0.01705  0.92334  1.0000
  O   O12       1.0  0.29579  0.17330  0.30863  1.0000
  O   O13       1.0  0.20689  0.34015  0.26269  1.0000
  O   O14       1.0  0.31088  0.47350  0.15193  1.0000
  O   O15       1.0  0.41990  0.43170  0.18367  1.0000
  C   C25       1.0  0.36282  0.43970  0.18939  1.0000
  C   C26       1.0  0.36300  0.40515  0.24377  1.0000
  N   N5        1.0  0.42643  0.38740  0.28652  1.0000
  C   C27       1.0  0.41266  0.35990  0.33096  1.0000
  C   C28       1.0  0.31336  0.38385  0.26353  1.0000
  C   C29       1.0  0.23652  0.38250  0.23737  1.0000
  N   N6        1.0  0.34485  0.35435  0.31872  1.0000
  C   C30       1.0  0.46562  0.34860  0.38982  1.0000
  C   C31       1.0  0.56158  0.33260  0.50274  1.0000
  C   C32       1.0  0.57060  0.28790  0.45918  1.0000
  H   H11       1.0  0.60850  0.25185  0.46770  1.0000
  C   C33       1.0  0.52300  0.29655  0.40257  1.0000
  H   H12       1.0  0.52990  0.26735  0.37340  1.0000
  C   C34       1.0  0.45640  0.39250  0.43384  1.0000
  H   H13       1.0  0.41770  0.42715  0.42560  1.0000
  C   C35       1.0  0.50430  0.38505  0.48966  1.0000
  H   H14       1.0  0.49810  0.41545  0.51870  1.0000
  O   O16       1.0  0.60044  0.37115  0.59964  1.0000
  H   H15       1.0  0.63360  0.36820  0.63070  1.0000
  C   C36       1.0  0.61103  0.32070  0.56275  1.0000
  O   O17       1.0  0.65687  0.26705  0.57666  1.0000
  O   O18       1.0  0.20421  0.42330  0.19137  1.0000
  N   N7        1.0  0.84485  0.10435  0.31872  1.0000
  C   C37       1.0  0.96562  0.09860  0.38982  1.0000
  C   C38       1.0  0.06158  0.08260  0.50274  1.0000
  C   C39       1.0  0.07060  0.03790  0.45918  1.0000
  H   H16       1.0  0.10850  0.00185  0.46770  1.0000
  C   C40       1.0  0.02300  0.04655  0.40257  1.0000
  H   H17       1.0  0.02990  0.01735  0.37340  1.0000
  C   C41       1.0  0.95640  0.14250  0.43384  1.0000
  H   H18       1.0  0.91770  0.17715  0.42560  1.0000
  C   C42       1.0  0.00430  0.13505  0.48966  1.0000
  H   H19       1.0  0.99810  0.16545  0.51870  1.0000
  O   O19       1.0  0.10044  0.12115  0.59964  1.0000
  H   H20       1.0  0.13360  0.11820  0.63070  1.0000
  C   C43       1.0  0.11103  0.07070  0.56275  1.0000
  O   O20       1.0  0.15687  0.01705  0.57666  1.0000
  O   O21       1.0  0.70421  0.17330  0.19137  1.0000
  O   O22       1.0  0.70689  0.09015  0.26269  1.0000
  O   O23       1.0  0.81088  0.22350  0.15193  1.0000
  O   O24       1.0  0.91990  0.18170  0.18367  1.0000
  C   C44       1.0  0.86282  0.18970  0.18939  1.0000
  C   C45       1.0  0.86300  0.15515  0.24377  1.0000
  N   N8        1.0  0.92643  0.13740  0.28652  1.0000
  C   C46       1.0  0.91266  0.10990  0.33096  1.0000
  C   C47       1.0  0.81336  0.13385  0.26353  1.0000
  C   C48       1.0  0.73652  0.13250  0.23737  1.0000
  O   O25       1.0  0.20689  0.15985  0.76269  1.0000
  O   O26       1.0  0.31088  0.02650  0.65193  1.0000
  O   O27       1.0  0.41990  0.06830  0.68367  1.0000
  C   C49       1.0  0.36282  0.06030  0.68939  1.0000
  C   C50       1.0  0.36300  0.09485  0.74377  1.0000
  N   N9        1.0  0.42643  0.11260  0.78652  1.0000
  C   C51       1.0  0.41266  0.14010  0.83096  1.0000
  C   C52       1.0  0.31336  0.11615  0.76353  1.0000
  C   C53       1.0  0.23652  0.11750  0.73737  1.0000
  N   N10       1.0  0.34485  0.14565  0.81872  1.0000
  C   C54       1.0  0.46562  0.15140  0.88982  1.0000
  C   C55       1.0  0.56158  0.16740  0.00274  1.0000
  C   C56       1.0  0.57060  0.21210  0.95918  1.0000
  H   H21       1.0  0.60850  0.24815  0.96770  1.0000
  C   C57       1.0  0.52300  0.20345  0.90257  1.0000
  H   H22       1.0  0.52990  0.23265  0.87340  1.0000
  C   C58       1.0  0.45640  0.10750  0.93384  1.0000
  H   H23       1.0  0.41770  0.07285  0.92560  1.0000
  C   C59       1.0  0.50430  0.11495  0.98966  1.0000
  H   H24       1.0  0.49810  0.08455  0.01870  1.0000
  O   O28       1.0  0.60044  0.12885  0.09964  1.0000
  H   H25       1.0  0.63360  0.13180  0.13070  1.0000
  C   C60       1.0  0.61103  0.17930  0.06275  1.0000
  O   O29       1.0  0.65687  0.23295  0.07666  1.0000
  O   O30       1.0  0.20421  0.07670  0.69137  1.0000
  O   O31       1.0  0.70689  0.40985  0.76269  1.0000
  O   O32       1.0  0.81088  0.27650  0.65193  1.0000
  O   O33       1.0  0.91990  0.31830  0.68367  1.0000
  C   C61       1.0  0.86282  0.31030  0.68939  1.0000
  C   C62       1.0  0.86300  0.34485  0.74377  1.0000
  N   N11       1.0  0.92643  0.36260  0.78652  1.0000
  C   C63       1.0  0.91266  0.39010  0.83096  1.0000
  C   C64       1.0  0.81336  0.36615  0.76353  1.0000
  C   C65       1.0  0.73652  0.36750  0.73737  1.0000
  N   N12       1.0  0.84485  0.39565  0.81872  1.0000
  C   C66       1.0  0.96562  0.40140  0.88982  1.0000
  C   C67       1.0  0.06158  0.41740  0.00274  1.0000
  C   C68       1.0  0.07060  0.46210  0.95918  1.0000
  H   H26       1.0  0.10850  0.49815  0.96770  1.0000
  C   C69       1.0  0.02300  0.45345  0.90257  1.0000
  H   H27       1.0  0.02990  0.48265  0.87340  1.0000
  C   C70       1.0  0.95640  0.35750  0.93384  1.0000
  H   H28       1.0  0.91770  0.32285  0.92560  1.0000
  C   C71       1.0  0.00430  0.36495  0.98966  1.0000
  H   H29       1.0  0.99810  0.33455  0.01870  1.0000
  O   O34       1.0  0.10044  0.37885  0.09964  1.0000
  H   H30       1.0  0.13360  0.38180  0.13070  1.0000
  C   C72       1.0  0.11103  0.42930  0.06275  1.0000
  O   O35       1.0  0.15687  0.48295  0.07666  1.0000
  O   O36       1.0  0.70421  0.32670  0.69137  1.0000
  O   O37       1.0  0.39956  0.12885  0.40036  1.0000
  H   H31       1.0  0.36640  0.13180  0.36930  1.0000
  C   C73       1.0  0.38897  0.17930  0.43725  1.0000
  O   O38       1.0  0.34313  0.23295  0.42334  1.0000
  O   O39       1.0  0.79579  0.07670  0.80863  1.0000
  O   O40       1.0  0.79311  0.15985  0.73731  1.0000
  O   O41       1.0  0.68912  0.02650  0.84807  1.0000
  O   O42       1.0  0.58010  0.06830  0.81633  1.0000
  C   C74       1.0  0.63718  0.06030  0.81061  1.0000
  C   C75       1.0  0.63700  0.09485  0.75623  1.0000
  N   N13       1.0  0.57357  0.11260  0.71348  1.0000
  C   C76       1.0  0.58734  0.14010  0.66904  1.0000
  C   C77       1.0  0.68664  0.11615  0.73647  1.0000
  C   C78       1.0  0.76348  0.11750  0.76263  1.0000
  N   N14       1.0  0.65515  0.14565  0.68128  1.0000
  C   C79       1.0  0.53438  0.15140  0.61018  1.0000
  C   C80       1.0  0.43842  0.16740  0.49726  1.0000
  C   C81       1.0  0.42940  0.21210  0.54082  1.0000
  H   H32       1.0  0.39150  0.24815  0.53230  1.0000
  C   C82       1.0  0.47700  0.20345  0.59743  1.0000
  H   H33       1.0  0.47010  0.23265  0.62660  1.0000
  C   C83       1.0  0.54360  0.10750  0.56616  1.0000
  H   H34       1.0  0.58230  0.07285  0.57440  1.0000
  C   C84       1.0  0.49570  0.11495  0.51034  1.0000
  H   H35       1.0  0.50190  0.08455  0.48130  1.0000
  O   O43       1.0  0.29311  0.40985  0.73731  1.0000
  O   O44       1.0  0.18912  0.27650  0.84807  1.0000
  O   O45       1.0  0.08010  0.31830  0.81633  1.0000
  C   C85       1.0  0.13718  0.31030  0.81061  1.0000
  C   C86       1.0  0.13700  0.34485  0.75623  1.0000
  N   N15       1.0  0.07357  0.36260  0.71348  1.0000
  C   C87       1.0  0.08734  0.39010  0.66904  1.0000
  C   C88       1.0  0.18664  0.36615  0.73647  1.0000
  C   C89       1.0  0.26348  0.36750  0.76263  1.0000
  N   N16       1.0  0.15515  0.39565  0.68128  1.0000
  C   C90       1.0  0.03438  0.40140  0.61018  1.0000
  C   C91       1.0  0.93842  0.41740  0.49726  1.0000
  C   C92       1.0  0.92940  0.46210  0.54082  1.0000
  H   H36       1.0  0.89150  0.49815  0.53230  1.0000
  C   C93       1.0  0.97700  0.45345  0.59743  1.0000
  H   H37       1.0  0.97010  0.48265  0.62660  1.0000
  C   C94       1.0  0.04360  0.35750  0.56616  1.0000
  H   H38       1.0  0.08230  0.32285  0.57440  1.0000
  C   C95       1.0  0.99570  0.36495  0.51034  1.0000
  H   H39       1.0  0.00190  0.33455  0.48130  1.0000
  O   O46       1.0  0.89956  0.37885  0.40036  1.0000
  H   H40       1.0  0.86640  0.38180  0.36930  1.0000
  C   C96       1.0  0.88897  0.42930  0.43725  1.0000
  O   O47       1.0  0.84313  0.48295  0.42334  1.0000
  O   O48       1.0  0.29579  0.32670  0.80863  1.0000
  N   N17       1.0  0.75847  0.13800  0.39067  1.0000
  C   C97       1.0  0.80660  0.16560  0.43900  1.0000
  H   H41       1.0  0.84720  0.13405  0.45510  1.0000
  C   C98       1.0  0.80050  0.23820  0.46720  1.0000
  H   H42       1.0  0.83930  0.25620  0.49860  1.0000
  C   C99       1.0  0.70120  0.18965  0.36670  1.0000
  H   H43       1.0  0.66760  0.17485  0.33100  1.0000
  C   C100      1.0  0.69160  0.26215  0.39320  1.0000
  H   H44       1.0  0.65370  0.29820  0.37620  1.0000
  C   C101      1.0  0.74950  0.27925  0.45420  1.0000
  C   C102      1.0  0.75960  0.33740  0.50620  1.0000
  H   H45       1.0  0.77860  0.31755  0.54370  1.0000
  N   N18       1.0  0.74153  0.11200  0.60933  1.0000
  C   C103      1.0  0.69340  0.08440  0.56100  1.0000
  H   H46       1.0  0.65280  0.11595  0.54490  1.0000
  C   C104      1.0  0.69950  0.01180  0.53280  1.0000
  H   H47       1.0  0.66070  0.49380  0.50140  1.0000
  C   C105      1.0  0.79880  0.06035  0.63330  1.0000
  H   H48       1.0  0.83240  0.07515  0.66900  1.0000
  C   C106      1.0  0.80840  0.48785  0.60680  1.0000
  H   H49       1.0  0.84630  0.45180  0.62380  1.0000
  C   C107      1.0  0.75050  0.47075  0.54580  1.0000
  C   C108      1.0  0.74040  0.41260  0.49380  1.0000
  H   H50       1.0  0.72140  0.43245  0.45630  1.0000
  N   N19       1.0  0.24153  0.36200  0.60933  1.0000
  C   C109      1.0  0.19340  0.33440  0.56100  1.0000
  H   H51       1.0  0.15280  0.36595  0.54490  1.0000
  C   C110      1.0  0.19950  0.26180  0.53280  1.0000
  H   H52       1.0  0.16070  0.24380  0.50140  1.0000
  C   C111      1.0  0.29880  0.31035  0.63330  1.0000
  H   H53       1.0  0.33240  0.32515  0.66900  1.0000
  C   C112      1.0  0.30840  0.23785  0.60680  1.0000
  H   H54       1.0  0.34630  0.20180  0.62380  1.0000
  C   C113      1.0  0.25050  0.22075  0.54580  1.0000
  N   N20       1.0  0.25847  0.38800  0.39067  1.0000
  C   C114      1.0  0.30660  0.41560  0.43900  1.0000
  H   H55       1.0  0.34720  0.38405  0.45510  1.0000
  C   C115      1.0  0.30050  0.48820  0.46720  1.0000
  H   H56       1.0  0.33930  0.00620  0.49860  1.0000
  C   C116      1.0  0.20120  0.43965  0.36670  1.0000
  H   H57       1.0  0.16760  0.42485  0.33100  1.0000
  C   C117      1.0  0.19160  0.01215  0.39320  1.0000
  H   H58       1.0  0.15370  0.04820  0.37620  1.0000
  C   C118      1.0  0.24950  0.02925  0.45420  1.0000
  H   H59       1.0  0.22140  0.18245  0.45630  1.0000
  C   C119      1.0  0.25960  0.08740  0.50620  1.0000
  H   H60       1.0  0.27860  0.06755  0.54370  1.0000
  C   C120      1.0  0.24040  0.16260  0.49380  1.0000
  N   N21       1.0  0.25847  0.11200  0.89067  1.0000
  C   C121      1.0  0.30660  0.08440  0.93900  1.0000
  H   H61       1.0  0.34720  0.11595  0.95510  1.0000
  C   C122      1.0  0.30050  0.01180  0.96720  1.0000
  H   H62       1.0  0.33930  0.49380  0.99860  1.0000
  C   C123      1.0  0.20120  0.06035  0.86670  1.0000
  H   H63       1.0  0.16760  0.07515  0.83100  1.0000
  C   C124      1.0  0.19160  0.48785  0.89320  1.0000
  H   H64       1.0  0.15370  0.45180  0.87620  1.0000
  C   C125      1.0  0.24950  0.47075  0.95420  1.0000
  C   C126      1.0  0.25960  0.41260  0.00620  1.0000
  H   H65       1.0  0.27860  0.43245  0.04370  1.0000
  N   N22       1.0  0.24153  0.13800  0.10933  1.0000
  C   C127      1.0  0.19340  0.16560  0.06100  1.0000
  H   H66       1.0  0.15280  0.13405  0.04490  1.0000
  C   C128      1.0  0.19950  0.23820  0.03280  1.0000
  H   H67       1.0  0.16070  0.25620  0.00140  1.0000
  C   C129      1.0  0.29880  0.18965  0.13330  1.0000
  H   H68       1.0  0.33240  0.17485  0.16900  1.0000
  C   C130      1.0  0.30840  0.26215  0.10680  1.0000
  H   H69       1.0  0.34630  0.29820  0.12380  1.0000
  C   C131      1.0  0.25050  0.27925  0.04580  1.0000
  C   C132      1.0  0.24040  0.33740  0.99380  1.0000
  H   H70       1.0  0.22140  0.31755  0.95630  1.0000
  N   N23       1.0  0.75847  0.36200  0.89067  1.0000
  C   C133      1.0  0.80660  0.33440  0.93900  1.0000
  H   H71       1.0  0.84720  0.36595  0.95510  1.0000
  C   C134      1.0  0.80050  0.26180  0.96720  1.0000
  H   H72       1.0  0.83930  0.24380  0.99860  1.0000
  C   C135      1.0  0.70120  0.31035  0.86670  1.0000
  H   H73       1.0  0.66760  0.32515  0.83100  1.0000
  C   C136      1.0  0.69160  0.23785  0.89320  1.0000
  H   H74       1.0  0.65370  0.20180  0.87620  1.0000
  C   C137      1.0  0.74950  0.22075  0.95420  1.0000
  N   N24       1.0  0.74153  0.38800  0.10933  1.0000
  C   C138      1.0  0.69340  0.41560  0.06100  1.0000
  H   H75       1.0  0.65280  0.38405  0.04490  1.0000
  C   C139      1.0  0.69950  0.48820  0.03280  1.0000
  H   H76       1.0  0.66070  0.00620  0.00140  1.0000
  C   C140      1.0  0.79880  0.43965  0.13330  1.0000
  H   H77       1.0  0.83240  0.42485  0.16900  1.0000
  C   C141      1.0  0.80840  0.01215  0.10680  1.0000
  H   H78       1.0  0.84630  0.04820  0.12380  1.0000
  C   C142      1.0  0.75050  0.02925  0.04580  1.0000
  H   H79       1.0  0.77860  0.18245  0.04370  1.0000
  C   C143      1.0  0.74040  0.08740  0.99380  1.0000
  H   H80       1.0  0.72140  0.06755  0.95630  1.0000
  C   C144      1.0  0.75960  0.16260  0.00620  1.0000
  Co  Co1       1.0  0.77314  0.03522  0.34286  1.0000
  Co  Co2       1.0  0.72686  0.21478  0.65714  1.0000
  Co  Co3       1.0  0.27314  0.28521  0.34286  1.0000
  Co  Co4       1.0  0.77314  0.46479  0.84286  1.0000
  Co  Co5       1.0  0.22686  0.03522  0.15714  1.0000
  Co  Co6       1.0  0.27314  0.21478  0.84286  1.0000
  Co  Co7       1.0  0.72686  0.28521  0.15714  1.0000
  Co  Co8       1.0  0.50000  0.38135  0.25000  1.0000
  Co  Co9       1.0  0.00000  0.13135  0.25000  1.0000
  Co  Co10      1.0  0.50000  0.11865  0.75000  1.0000
  Co  Co11      1.0  0.22686  0.46479  0.65714  1.0000
  Co  Co12      1.0  0.00000  0.36865  0.75000  1.0000
  O   O49       1.0  0.79311  0.84015  0.23731  1.0000
  O   O50       1.0  0.68912  0.97350  0.34807  1.0000
  O   O51       1.0  0.58010  0.93170  0.31633  1.0000
  C   C145      1.0  0.63718  0.93970  0.31061  1.0000
  C   C146      1.0  0.63700  0.90515  0.25623  1.0000
  N   N25       1.0  0.57357  0.88740  0.21348  1.0000
  C   C147      1.0  0.58734  0.85990  0.16904  1.0000
  C   C148      1.0  0.68664  0.88385  0.23647  1.0000
  C   C149      1.0  0.76348  0.88250  0.26263  1.0000
  N   N26       1.0  0.65515  0.85435  0.18128  1.0000
  C   C150      1.0  0.53438  0.84860  0.11018  1.0000
  C   C151      1.0  0.43842  0.83260  0.99726  1.0000
  C   C152      1.0  0.42940  0.78790  0.04082  1.0000
  H   H81       1.0  0.39150  0.75185  0.03230  1.0000
  C   C153      1.0  0.47700  0.79655  0.09743  1.0000
  H   H82       1.0  0.47010  0.76735  0.12660  1.0000
  C   C154      1.0  0.54360  0.89250  0.06616  1.0000
  H   H83       1.0  0.58230  0.92715  0.07440  1.0000
  C   C155      1.0  0.49570  0.88505  0.01034  1.0000
  H   H84       1.0  0.50190  0.91545  0.98130  1.0000
  O   O52       1.0  0.39956  0.87115  0.90036  1.0000
  H   H85       1.0  0.36640  0.86820  0.86930  1.0000
  C   C156      1.0  0.38897  0.82070  0.93725  1.0000
  O   O53       1.0  0.34313  0.76705  0.92334  1.0000
  O   O54       1.0  0.79579  0.92330  0.30863  1.0000
  O   O55       1.0  0.29311  0.59015  0.23731  1.0000
  O   O56       1.0  0.18912  0.72350  0.34807  1.0000
  O   O57       1.0  0.08010  0.68170  0.31633  1.0000
  C   C157      1.0  0.13718  0.68970  0.31061  1.0000
  C   C158      1.0  0.13700  0.65515  0.25623  1.0000
  N   N27       1.0  0.07357  0.63740  0.21348  1.0000
  C   C159      1.0  0.08734  0.60990  0.16904  1.0000
  C   C160      1.0  0.18664  0.63385  0.23647  1.0000
  C   C161      1.0  0.26348  0.63250  0.26263  1.0000
  N   N28       1.0  0.15515  0.60435  0.18128  1.0000
  C   C162      1.0  0.03438  0.59860  0.11018  1.0000
  C   C163      1.0  0.93842  0.58260  0.99726  1.0000
  C   C164      1.0  0.92940  0.53790  0.04082  1.0000
  H   H86       1.0  0.89150  0.50185  0.03230  1.0000
  C   C165      1.0  0.97700  0.54655  0.09743  1.0000
  H   H87       1.0  0.97010  0.51735  0.12660  1.0000
  C   C166      1.0  0.04360  0.64250  0.06616  1.0000
  H   H88       1.0  0.08230  0.67715  0.07440  1.0000
  C   C167      1.0  0.99570  0.63505  0.01034  1.0000
  H   H89       1.0  0.00190  0.66545  0.98130  1.0000
  O   O58       1.0  0.89956  0.62115  0.90036  1.0000
  H   H90       1.0  0.86640  0.61820  0.86930  1.0000
  C   C168      1.0  0.88897  0.57070  0.93725  1.0000
  O   O59       1.0  0.84313  0.51705  0.92334  1.0000
  O   O60       1.0  0.29579  0.67330  0.30863  1.0000
  O   O61       1.0  0.20689  0.84015  0.26269  1.0000
  O   O62       1.0  0.31088  0.97350  0.15193  1.0000
  O   O63       1.0  0.41990  0.93170  0.18367  1.0000
  C   C169      1.0  0.36282  0.93970  0.18939  1.0000
  C   C170      1.0  0.36300  0.90515  0.24377  1.0000
  N   N29       1.0  0.42643  0.88740  0.28652  1.0000
  C   C171      1.0  0.41266  0.85990  0.33096  1.0000
  C   C172      1.0  0.31336  0.88385  0.26353  1.0000
  C   C173      1.0  0.23652  0.88250  0.23737  1.0000
  N   N30       1.0  0.34485  0.85435  0.31872  1.0000
  C   C174      1.0  0.46562  0.84860  0.38982  1.0000
  C   C175      1.0  0.56158  0.83260  0.50274  1.0000
  C   C176      1.0  0.57060  0.78790  0.45918  1.0000
  H   H91       1.0  0.60850  0.75185  0.46770  1.0000
  C   C177      1.0  0.52300  0.79655  0.40257  1.0000
  H   H92       1.0  0.52990  0.76735  0.37340  1.0000
  C   C178      1.0  0.45640  0.89250  0.43384  1.0000
  H   H93       1.0  0.41770  0.92715  0.42560  1.0000
  C   C179      1.0  0.50430  0.88505  0.48966  1.0000
  H   H94       1.0  0.49810  0.91545  0.51870  1.0000
  O   O64       1.0  0.60044  0.87115  0.59964  1.0000
  H   H95       1.0  0.63360  0.86820  0.63070  1.0000
  C   C180      1.0  0.61103  0.82070  0.56275  1.0000
  O   O65       1.0  0.65687  0.76705  0.57666  1.0000
  O   O66       1.0  0.20421  0.92330  0.19137  1.0000
  N   N31       1.0  0.84485  0.60435  0.31872  1.0000
  C   C181      1.0  0.96562  0.59860  0.38982  1.0000
  C   C182      1.0  0.06158  0.58260  0.50274  1.0000
  C   C183      1.0  0.07060  0.53790  0.45918  1.0000
  H   H96       1.0  0.10850  0.50185  0.46770  1.0000
  C   C184      1.0  0.02300  0.54655  0.40257  1.0000
  H   H97       1.0  0.02990  0.51735  0.37340  1.0000
  C   C185      1.0  0.95640  0.64250  0.43384  1.0000
  H   H98       1.0  0.91770  0.67715  0.42560  1.0000
  C   C186      1.0  0.00430  0.63505  0.48966  1.0000
  H   H99       1.0  0.99810  0.66545  0.51870  1.0000
  O   O67       1.0  0.10044  0.62115  0.59964  1.0000
  H   H100      1.0  0.13360  0.61820  0.63070  1.0000
  C   C187      1.0  0.11103  0.57070  0.56275  1.0000
  O   O68       1.0  0.15687  0.51705  0.57666  1.0000
  O   O69       1.0  0.70421  0.67330  0.19137  1.0000
  O   O70       1.0  0.70689  0.59015  0.26269  1.0000
  O   O71       1.0  0.81088  0.72350  0.15193  1.0000
  O   O72       1.0  0.91990  0.68170  0.18367  1.0000
  C   C188      1.0  0.86282  0.68970  0.18939  1.0000
  C   C189      1.0  0.86300  0.65515  0.24377  1.0000
  N   N32       1.0  0.92643  0.63740  0.28652  1.0000
  C   C190      1.0  0.91266  0.60990  0.33096  1.0000
  C   C191      1.0  0.81336  0.63385  0.26353  1.0000
  C   C192      1.0  0.73652  0.63250  0.23737  1.0000
  O   O73       1.0  0.20689  0.65985  0.76269  1.0000
  O   O74       1.0  0.31088  0.52650  0.65193  1.0000
  O   O75       1.0  0.41990  0.56830  0.68367  1.0000
  C   C193      1.0  0.36282  0.56030  0.68939  1.0000
  C   C194      1.0  0.36300  0.59485  0.74377  1.0000
  N   N33       1.0  0.42643  0.61260  0.78652  1.0000
  C   C195      1.0  0.41266  0.64010  0.83096  1.0000
  C   C196      1.0  0.31336  0.61615  0.76353  1.0000
  C   C197      1.0  0.23652  0.61750  0.73737  1.0000
  N   N34       1.0  0.34485  0.64565  0.81872  1.0000
  C   C198      1.0  0.46562  0.65140  0.88982  1.0000
  C   C199      1.0  0.56158  0.66740  0.00274  1.0000
  C   C200      1.0  0.57060  0.71210  0.95918  1.0000
  H   H101      1.0  0.60850  0.74815  0.96770  1.0000
  C   C201      1.0  0.52300  0.70345  0.90257  1.0000
  H   H102      1.0  0.52990  0.73265  0.87340  1.0000
  C   C202      1.0  0.45640  0.60750  0.93384  1.0000
  H   H103      1.0  0.41770  0.57285  0.92560  1.0000
  C   C203      1.0  0.50430  0.61495  0.98966  1.0000
  H   H104      1.0  0.49810  0.58455  0.01870  1.0000
  O   O76       1.0  0.60044  0.62885  0.09964  1.0000
  H   H105      1.0  0.63360  0.63180  0.13070  1.0000
  C   C204      1.0  0.61103  0.67930  0.06275  1.0000
  O   O77       1.0  0.65687  0.73295  0.07666  1.0000
  O   O78       1.0  0.20421  0.57670  0.69137  1.0000
  O   O79       1.0  0.70689  0.90985  0.76269  1.0000
  O   O80       1.0  0.81088  0.77650  0.65193  1.0000
  O   O81       1.0  0.91990  0.81830  0.68367  1.0000
  C   C205      1.0  0.86282  0.81030  0.68939  1.0000
  C   C206      1.0  0.86300  0.84485  0.74377  1.0000
  N   N35       1.0  0.92643  0.86260  0.78652  1.0000
  C   C207      1.0  0.91266  0.89010  0.83096  1.0000
  C   C208      1.0  0.81336  0.86615  0.76353  1.0000
  C   C209      1.0  0.73652  0.86750  0.73737  1.0000
  N   N36       1.0  0.84485  0.89565  0.81872  1.0000
  C   C210      1.0  0.96562  0.90140  0.88982  1.0000
  C   C211      1.0  0.06158  0.91740  0.00274  1.0000
  C   C212      1.0  0.07060  0.96210  0.95918  1.0000
  H   H106      1.0  0.10850  0.99815  0.96770  1.0000
  C   C213      1.0  0.02300  0.95345  0.90257  1.0000
  H   H107      1.0  0.02990  0.98265  0.87340  1.0000
  C   C214      1.0  0.95640  0.85750  0.93384  1.0000
  H   H108      1.0  0.91770  0.82285  0.92560  1.0000
  C   C215      1.0  0.00430  0.86495  0.98966  1.0000
  H   H109      1.0  0.99810  0.83455  0.01870  1.0000
  O   O82       1.0  0.10044  0.87885  0.09964  1.0000
  H   H110      1.0  0.13360  0.88180  0.13070  1.0000
  C   C216      1.0  0.11103  0.92930  0.06275  1.0000
  O   O83       1.0  0.15687  0.98295  0.07666  1.0000
  O   O84       1.0  0.70421  0.82670  0.69137  1.0000
  O   O85       1.0  0.39956  0.62885  0.40036  1.0000
  H   H111      1.0  0.36640  0.63180  0.36930  1.0000
  C   C217      1.0  0.38897  0.67930  0.43725  1.0000
  O   O86       1.0  0.34313  0.73295  0.42334  1.0000
  O   O87       1.0  0.79579  0.57670  0.80863  1.0000
  O   O88       1.0  0.79311  0.65985  0.73731  1.0000
  O   O89       1.0  0.68912  0.52650  0.84807  1.0000
  O   O90       1.0  0.58010  0.56830  0.81633  1.0000
  C   C218      1.0  0.63718  0.56030  0.81061  1.0000
  C   C219      1.0  0.63700  0.59485  0.75623  1.0000
  N   N37       1.0  0.57357  0.61260  0.71348  1.0000
  C   C220      1.0  0.58734  0.64010  0.66904  1.0000
  C   C221      1.0  0.68664  0.61615  0.73647  1.0000
  C   C222      1.0  0.76348  0.61750  0.76263  1.0000
  N   N38       1.0  0.65515  0.64565  0.68128  1.0000
  C   C223      1.0  0.53438  0.65140  0.61018  1.0000
  C   C224      1.0  0.43842  0.66740  0.49726  1.0000
  C   C225      1.0  0.42940  0.71210  0.54082  1.0000
  H   H112      1.0  0.39150  0.74815  0.53230  1.0000
  C   C226      1.0  0.47700  0.70345  0.59743  1.0000
  H   H113      1.0  0.47010  0.73265  0.62660  1.0000
  C   C227      1.0  0.54360  0.60750  0.56616  1.0000
  H   H114      1.0  0.58230  0.57285  0.57440  1.0000
  C   C228      1.0  0.49570  0.61495  0.51034  1.0000
  H   H115      1.0  0.50190  0.58455  0.48130  1.0000
  O   O91       1.0  0.29311  0.90985  0.73731  1.0000
  O   O92       1.0  0.18912  0.77650  0.84807  1.0000
  O   O93       1.0  0.08010  0.81830  0.81633  1.0000
  C   C229      1.0  0.13718  0.81030  0.81061  1.0000
  C   C230      1.0  0.13700  0.84485  0.75623  1.0000
  N   N39       1.0  0.07357  0.86260  0.71348  1.0000
  C   C231      1.0  0.08734  0.89010  0.66904  1.0000
  C   C232      1.0  0.18664  0.86615  0.73647  1.0000
  C   C233      1.0  0.26348  0.86750  0.76263  1.0000
  N   N40       1.0  0.15515  0.89565  0.68128  1.0000
  C   C234      1.0  0.03438  0.90140  0.61018  1.0000
  C   C235      1.0  0.93842  0.91740  0.49726  1.0000
  C   C236      1.0  0.92940  0.96210  0.54082  1.0000
  H   H116      1.0  0.89150  0.99815  0.53230  1.0000
  C   C237      1.0  0.97700  0.95345  0.59743  1.0000
  H   H117      1.0  0.97010  0.98265  0.62660  1.0000
  C   C238      1.0  0.04360  0.85750  0.56616  1.0000
  H   H118      1.0  0.08230  0.82285  0.57440  1.0000
  C   C239      1.0  0.99570  0.86495  0.51034  1.0000
  H   H119      1.0  0.00190  0.83455  0.48130  1.0000
  O   O94       1.0  0.89956  0.87885  0.40036  1.0000
  H   H120      1.0  0.86640  0.88180  0.36930  1.0000
  C   C240      1.0  0.88897  0.92930  0.43725  1.0000
  O   O95       1.0  0.84313  0.98295  0.42334  1.0000
  O   O96       1.0  0.29579  0.82670  0.80863  1.0000
  N   N41       1.0  0.75847  0.63800  0.39067  1.0000
  C   C241      1.0  0.80660  0.66560  0.43900  1.0000
  H   H121      1.0  0.84720  0.63405  0.45510  1.0000
  C   C242      1.0  0.80050  0.73820  0.46720  1.0000
  H   H122      1.0  0.83930  0.75620  0.49860  1.0000
  C   C243      1.0  0.70120  0.68965  0.36670  1.0000
  H   H123      1.0  0.66760  0.67485  0.33100  1.0000
  C   C244      1.0  0.69160  0.76215  0.39320  1.0000
  H   H124      1.0  0.65370  0.79820  0.37620  1.0000
  C   C245      1.0  0.74950  0.77925  0.45420  1.0000
  C   C246      1.0  0.75960  0.83740  0.50620  1.0000
  H   H125      1.0  0.77860  0.81755  0.54370  1.0000
  N   N42       1.0  0.74153  0.61200  0.60933  1.0000
  C   C247      1.0  0.69340  0.58440  0.56100  1.0000
  H   H126      1.0  0.65280  0.61595  0.54490  1.0000
  C   C248      1.0  0.69950  0.51180  0.53280  1.0000
  H   H127      1.0  0.66070  0.99380  0.50140  1.0000
  C   C249      1.0  0.79880  0.56035  0.63330  1.0000
  H   H128      1.0  0.83240  0.57515  0.66900  1.0000
  C   C250      1.0  0.80840  0.98785  0.60680  1.0000
  H   H129      1.0  0.84630  0.95180  0.62380  1.0000
  C   C251      1.0  0.75050  0.97075  0.54580  1.0000
  C   C252      1.0  0.74040  0.91260  0.49380  1.0000
  H   H130      1.0  0.72140  0.93245  0.45630  1.0000
  N   N43       1.0  0.24153  0.86200  0.60933  1.0000
  C   C253      1.0  0.19340  0.83440  0.56100  1.0000
  H   H131      1.0  0.15280  0.86595  0.54490  1.0000
  C   C254      1.0  0.19950  0.76180  0.53280  1.0000
  H   H132      1.0  0.16070  0.74380  0.50140  1.0000
  C   C255      1.0  0.29880  0.81035  0.63330  1.0000
  H   H133      1.0  0.33240  0.82515  0.66900  1.0000
  C   C256      1.0  0.30840  0.73785  0.60680  1.0000
  H   H134      1.0  0.34630  0.70180  0.62380  1.0000
  C   C257      1.0  0.25050  0.72075  0.54580  1.0000
  N   N44       1.0  0.25847  0.88800  0.39067  1.0000
  C   C258      1.0  0.30660  0.91560  0.43900  1.0000
  H   H135      1.0  0.34720  0.88405  0.45510  1.0000
  C   C259      1.0  0.30050  0.98820  0.46720  1.0000
  H   H136      1.0  0.33930  0.50620  0.49860  1.0000
  C   C260      1.0  0.20120  0.93965  0.36670  1.0000
  H   H137      1.0  0.16760  0.92485  0.33100  1.0000
  C   C261      1.0  0.19160  0.51215  0.39320  1.0000
  H   H138      1.0  0.15370  0.54820  0.37620  1.0000
  C   C262      1.0  0.24950  0.52925  0.45420  1.0000
  H   H139      1.0  0.22140  0.68245  0.45630  1.0000
  C   C263      1.0  0.25960  0.58740  0.50620  1.0000
  H   H140      1.0  0.27860  0.56755  0.54370  1.0000
  C   C264      1.0  0.24040  0.66260  0.49380  1.0000
  N   N45       1.0  0.25847  0.61200  0.89067  1.0000
  C   C265      1.0  0.30660  0.58440  0.93900  1.0000
  H   H141      1.0  0.34720  0.61595  0.95510  1.0000
  C   C266      1.0  0.30050  0.51180  0.96720  1.0000
  H   H142      1.0  0.33930  0.99380  0.99860  1.0000
  C   C267      1.0  0.20120  0.56035  0.86670  1.0000
  H   H143      1.0  0.16760  0.57515  0.83100  1.0000
  C   C268      1.0  0.19160  0.98785  0.89320  1.0000
  H   H144      1.0  0.15370  0.95180  0.87620  1.0000
  C   C269      1.0  0.24950  0.97075  0.95420  1.0000
  C   C270      1.0  0.25960  0.91260  0.00620  1.0000
  H   H145      1.0  0.27860  0.93245  0.04370  1.0000
  N   N46       1.0  0.24153  0.63800  0.10933  1.0000
  C   C271      1.0  0.19340  0.66560  0.06100  1.0000
  H   H146      1.0  0.15280  0.63405  0.04490  1.0000
  C   C272      1.0  0.19950  0.73820  0.03280  1.0000
  H   H147      1.0  0.16070  0.75620  0.00140  1.0000
  C   C273      1.0  0.29880  0.68965  0.13330  1.0000
  H   H148      1.0  0.33240  0.67485  0.16900  1.0000
  C   C274      1.0  0.30840  0.76215  0.10680  1.0000
  H   H149      1.0  0.34630  0.79820  0.12380  1.0000
  C   C275      1.0  0.25050  0.77925  0.04580  1.0000
  C   C276      1.0  0.24040  0.83740  0.99380  1.0000
  H   H150      1.0  0.22140  0.81755  0.95630  1.0000
  N   N47       1.0  0.75847  0.86200  0.89067  1.0000
  C   C277      1.0  0.80660  0.83440  0.93900  1.0000
  H   H151      1.0  0.84720  0.86595  0.95510  1.0000
  C   C278      1.0  0.80050  0.76180  0.96720  1.0000
  H   H152      1.0  0.83930  0.74380  0.99860  1.0000
  C   C279      1.0  0.70120  0.81035  0.86670  1.0000
  H   H153      1.0  0.66760  0.82515  0.83100  1.0000
  C   C280      1.0  0.69160  0.73785  0.89320  1.0000
  H   H154      1.0  0.65370  0.70180  0.87620  1.0000
  C   C281      1.0  0.74950  0.72075  0.95420  1.0000
  N   N48       1.0  0.74153  0.88800  0.10933  1.0000
  C   C282      1.0  0.69340  0.91560  0.06100  1.0000
  H   H155      1.0  0.65280  0.88405  0.04490  1.0000
  C   C283      1.0  0.69950  0.98820  0.03280  1.0000
  H   H156      1.0  0.66070  0.50620  0.00140  1.0000
  C   C284      1.0  0.79880  0.93965  0.13330  1.0000
  H   H157      1.0  0.83240  0.92485  0.16900  1.0000
  C   C285      1.0  0.80840  0.51215  0.10680  1.0000
  H   H158      1.0  0.84630  0.54820  0.12380  1.0000
  C   C286      1.0  0.75050  0.52925  0.04580  1.0000
  H   H159      1.0  0.77860  0.68245  0.04370  1.0000
  C   C287      1.0  0.74040  0.58740  0.99380  1.0000
  H   H160      1.0  0.72140  0.56755  0.95630  1.0000
  C   C288      1.0  0.75960  0.66260  0.00620  1.0000
  Co  Co13      1.0  0.77314  0.53521  0.34286  1.0000
  Co  Co14      1.0  0.72686  0.71478  0.65714  1.0000
  Co  Co15      1.0  0.27314  0.78521  0.34286  1.0000
  Co  Co16      1.0  0.77314  0.96478  0.84286  1.0000
  Co  Co17      1.0  0.22686  0.53521  0.15714  1.0000
  Co  Co18      1.0  0.27314  0.71478  0.84286  1.0000
  Co  Co19      1.0  0.72686  0.78521  0.15714  1.0000
  Co  Co20      1.0  0.50000  0.88135  0.25000  1.0000
  Co  Co21      1.0  0.00000  0.63135  0.25000  1.0000
  Co  Co22      1.0  0.50000  0.61865  0.75000  1.0000
  Co  Co23      1.0  0.22686  0.96478  0.65714  1.0000
  Co  Co24      1.0  0.00000  0.86865  0.75000  1.0000
