data_image0
_chemical_formula_structural       O6HN2C2HC6HCHCHC2O6HN2C2HC6HCHCHC2O6HN2C2HC6HCHCHC8HCHCHC2O6HN2C2HO6HN2C2HC6HCHCHC2O6HN2C2HC6HCHCHC2HC2O6HN2C2HC6HCHCO6HN2C2HC6HCHCHC2NCHCHCHC2HNCHCHCHC2HNCHCHCHC2NHCHCHCHC2HNCHCHCHC2HNCHCHCHC2HCHCHC2HN2CHCHCHC2HCHCo12O6HN2C2HC6HCHCHC2O6HN2C2HC6HCHCHC2O6HN2C2HC6HCHCHC8HCHCHC2O6HN2C2HO6HN2C2HC6HCHCHC2O6HN2C2HC6HCHCHC2HC2O6HN2C2HC6HCHCO6HN2C2HC6HCHCHC2NCHCHCHC2HNCHCHCHC2HNCHCHCHC2NHCHCHCHC2HNCHCHCHC2HNCHCHCHC2HCHCHC2HN2CHCHCHC2HCHCo12
_chemical_formula_sum              "O96 H144 N48 C272 Co24"
_cell_length_a       21.1044
_cell_length_b       14.5888
_cell_length_c       24.7921
_cell_angle_alpha    90
_cell_angle_beta     113.601
_cell_angle_gamma    90

_space_group_name_H-M_alt    "P 1"
_space_group_IT_number       1

loop_
  _space_group_symop_operation_xyz
  'x, y, z'

loop_
  _atom_site_type_symbol
  _atom_site_label
  _atom_site_symmetry_multiplicity
  _atom_site_fract_x
  _atom_site_fract_y
  _atom_site_fract_z
  _atom_site_occupancy
  O   O1        1.0  0.81287  0.02755  0.65166  1.0000
  O   O2        1.0  0.92029  0.47745  0.68328  1.0000
  O   O3        1.0  0.70916  0.48060  0.69476  1.0000
  O   O4        1.0  0.71160  0.41115  0.77482  1.0000
  O   O5        1.0  0.15887  0.23645  0.07097  1.0000
  O   O6        1.0  0.10700  0.33650  0.10874  1.0000
  H   H1        1.0  0.12350  0.30435  0.13820  1.0000
  N   N1        1.0  0.84990  0.41110  0.82740  1.0000
  N   N2        1.0  0.92948  0.43485  0.79052  1.0000
  C   C1        1.0  0.97070  0.38005  0.89474  1.0000
  C   C2        1.0  0.96130  0.40515  0.94550  1.0000
  H   H2        1.0  0.92260  0.43885  0.94230  1.0000
  C   C3        1.0  0.91640  0.40755  0.83722  1.0000
  C   C4        1.0  0.74120  0.44615  0.74491  1.0000
  C   C5        1.0  0.81790  0.44425  0.77087  1.0000
  C   C6        1.0  0.86480  0.49140  0.69054  1.0000
  C   C7        1.0  0.86640  0.45930  0.74786  1.0000
  C   C8        1.0  0.07560  0.30260  0.95510  1.0000
  H   H3        1.0  0.11360  0.26735  0.95830  1.0000
  C   C9        1.0  0.00930  0.38015  0.00060  1.0000
  H   H4        1.0  0.00320  0.39850  0.03410  1.0000
  C   C10       1.0  0.02840  0.32970  0.90010  1.0000
  H   H5        1.0  0.03550  0.31395  0.86660  1.0000
  C   C11       1.0  0.06620  0.32810  0.00606  1.0000
  C   C12       1.0  0.11550  0.29600  0.06466  1.0000
  O   O7        1.0  0.31287  0.27755  0.65166  1.0000
  O   O8        1.0  0.42029  0.22745  0.68328  1.0000
  O   O9        1.0  0.20916  0.23060  0.69476  1.0000
  O   O10       1.0  0.21160  0.16115  0.77482  1.0000
  O   O11       1.0  0.65887  0.48645  0.07097  1.0000
  O   O12       1.0  0.60700  0.08650  0.10874  1.0000
  H   H6        1.0  0.62350  0.05435  0.13820  1.0000
  N   N3        1.0  0.34990  0.16110  0.82740  1.0000
  N   N4        1.0  0.42948  0.18485  0.79052  1.0000
  C   C13       1.0  0.47070  0.13005  0.89474  1.0000
  C   C14       1.0  0.46130  0.15515  0.94550  1.0000
  H   H7        1.0  0.42260  0.18885  0.94230  1.0000
  C   C15       1.0  0.41640  0.15755  0.83722  1.0000
  C   C16       1.0  0.24120  0.19615  0.74491  1.0000
  C   C17       1.0  0.31790  0.19425  0.77087  1.0000
  C   C18       1.0  0.36480  0.24140  0.69054  1.0000
  C   C19       1.0  0.36640  0.20930  0.74786  1.0000
  C   C20       1.0  0.57560  0.05260  0.95510  1.0000
  H   H8        1.0  0.61360  0.01735  0.95830  1.0000
  C   C21       1.0  0.50930  0.13015  0.00060  1.0000
  H   H9        1.0  0.50320  0.14850  0.03410  1.0000
  C   C22       1.0  0.52840  0.07970  0.90010  1.0000
  H   H10       1.0  0.53550  0.06395  0.86660  1.0000
  C   C23       1.0  0.56620  0.07810  0.00606  1.0000
  C   C24       1.0  0.61550  0.04600  0.06466  1.0000
  O   O13       1.0  0.18713  0.02755  0.84834  1.0000
  O   O14       1.0  0.07971  0.47745  0.81672  1.0000
  O   O15       1.0  0.29084  0.48060  0.80524  1.0000
  O   O16       1.0  0.28840  0.41115  0.72518  1.0000
  O   O17       1.0  0.84113  0.23645  0.42903  1.0000
  O   O18       1.0  0.89300  0.33650  0.39126  1.0000
  H   H11       1.0  0.87650  0.30435  0.36180  1.0000
  N   N5        1.0  0.15010  0.41110  0.67260  1.0000
  N   N6        1.0  0.07052  0.43485  0.70948  1.0000
  C   C25       1.0  0.02930  0.38005  0.60526  1.0000
  C   C26       1.0  0.03870  0.40515  0.55450  1.0000
  H   H12       1.0  0.07740  0.43885  0.55770  1.0000
  C   C27       1.0  0.08360  0.40755  0.66278  1.0000
  C   C28       1.0  0.25880  0.44615  0.75509  1.0000
  C   C29       1.0  0.18210  0.44425  0.72913  1.0000
  C   C30       1.0  0.13520  0.49140  0.80946  1.0000
  C   C31       1.0  0.13360  0.45930  0.75214  1.0000
  C   C32       1.0  0.92440  0.30260  0.54490  1.0000
  H   H13       1.0  0.88640  0.26735  0.54170  1.0000
  C   C33       1.0  0.99070  0.38015  0.49940  1.0000
  H   H14       1.0  0.99680  0.39850  0.46590  1.0000
  C   C34       1.0  0.97160  0.32970  0.59990  1.0000
  H   H15       1.0  0.96450  0.31395  0.63340  1.0000
  C   C35       1.0  0.93380  0.32810  0.49394  1.0000
  C   C36       1.0  0.88450  0.29600  0.43534  1.0000
  C   C37       1.0  0.58360  0.15755  0.66278  1.0000
  C   C38       1.0  0.75880  0.19615  0.75509  1.0000
  C   C39       1.0  0.68210  0.19425  0.72913  1.0000
  C   C40       1.0  0.63520  0.24140  0.80946  1.0000
  C   C41       1.0  0.63360  0.20930  0.75214  1.0000
  C   C42       1.0  0.42440  0.05260  0.54490  1.0000
  H   H16       1.0  0.38640  0.01735  0.54170  1.0000
  C   C43       1.0  0.49070  0.13015  0.49940  1.0000
  H   H17       1.0  0.49680  0.14850  0.46590  1.0000
  C   C44       1.0  0.47160  0.07970  0.59990  1.0000
  H   H18       1.0  0.46450  0.06395  0.63340  1.0000
  C   C45       1.0  0.43380  0.07810  0.49394  1.0000
  C   C46       1.0  0.38450  0.04600  0.43534  1.0000
  O   O19       1.0  0.68713  0.27755  0.84834  1.0000
  O   O20       1.0  0.57971  0.22745  0.81672  1.0000
  O   O21       1.0  0.79084  0.23060  0.80524  1.0000
  O   O22       1.0  0.78840  0.16115  0.72518  1.0000
  O   O23       1.0  0.34113  0.48645  0.42903  1.0000
  O   O24       1.0  0.39300  0.08650  0.39126  1.0000
  H   H19       1.0  0.37650  0.05435  0.36180  1.0000
  N   N7        1.0  0.65010  0.16110  0.67260  1.0000
  N   N8        1.0  0.57052  0.18485  0.70948  1.0000
  C   C47       1.0  0.52930  0.13005  0.60526  1.0000
  C   C48       1.0  0.53870  0.15515  0.55450  1.0000
  H   H20       1.0  0.57740  0.18885  0.55770  1.0000
  O   O25       1.0  0.18713  0.47245  0.34834  1.0000
  O   O26       1.0  0.07971  0.02255  0.31672  1.0000
  O   O27       1.0  0.29084  0.01940  0.30524  1.0000
  O   O28       1.0  0.28840  0.08885  0.22518  1.0000
  O   O29       1.0  0.84113  0.26355  0.92903  1.0000
  O   O30       1.0  0.89300  0.16350  0.89126  1.0000
  H   H21       1.0  0.87650  0.19565  0.86180  1.0000
  N   N9        1.0  0.15010  0.08890  0.17260  1.0000
  N   N10       1.0  0.07052  0.06515  0.20948  1.0000
  C   C49       1.0  0.02930  0.11995  0.10526  1.0000
  C   C50       1.0  0.03870  0.09485  0.05450  1.0000
  H   H22       1.0  0.07740  0.06115  0.05770  1.0000
  C   C51       1.0  0.08360  0.09245  0.16278  1.0000
  C   C52       1.0  0.25880  0.05385  0.25509  1.0000
  C   C53       1.0  0.18210  0.05575  0.22913  1.0000
  C   C54       1.0  0.13520  0.00860  0.30946  1.0000
  C   C55       1.0  0.13360  0.04070  0.25214  1.0000
  C   C56       1.0  0.92440  0.19740  0.04490  1.0000
  H   H23       1.0  0.88640  0.23265  0.04170  1.0000
  C   C57       1.0  0.99070  0.11985  0.99940  1.0000
  H   H24       1.0  0.99680  0.10150  0.96590  1.0000
  C   C58       1.0  0.97160  0.17030  0.09990  1.0000
  H   H25       1.0  0.96450  0.18605  0.13340  1.0000
  C   C59       1.0  0.93380  0.17190  0.99394  1.0000
  C   C60       1.0  0.88450  0.20400  0.93534  1.0000
  O   O31       1.0  0.68713  0.22245  0.34834  1.0000
  O   O32       1.0  0.57971  0.27255  0.31672  1.0000
  O   O33       1.0  0.79084  0.26940  0.30524  1.0000
  O   O34       1.0  0.78840  0.33885  0.22518  1.0000
  O   O35       1.0  0.34113  0.01355  0.92903  1.0000
  O   O36       1.0  0.39300  0.41350  0.89126  1.0000
  H   H26       1.0  0.37650  0.44565  0.86180  1.0000
  N   N11       1.0  0.65010  0.33890  0.17260  1.0000
  N   N12       1.0  0.57052  0.31515  0.20948  1.0000
  C   C61       1.0  0.52930  0.36995  0.10526  1.0000
  C   C62       1.0  0.53870  0.34485  0.05450  1.0000
  H   H27       1.0  0.57740  0.31115  0.05770  1.0000
  C   C63       1.0  0.58360  0.34245  0.16278  1.0000
  C   C64       1.0  0.75880  0.30385  0.25509  1.0000
  C   C65       1.0  0.68210  0.30575  0.22913  1.0000
  C   C66       1.0  0.63520  0.25860  0.30946  1.0000
  C   C67       1.0  0.63360  0.29070  0.25214  1.0000
  C   C68       1.0  0.42440  0.44740  0.04490  1.0000
  H   H28       1.0  0.38640  0.48265  0.04170  1.0000
  C   C69       1.0  0.49070  0.36985  0.99940  1.0000
  H   H29       1.0  0.49680  0.35150  0.96590  1.0000
  C   C70       1.0  0.47160  0.42030  0.09990  1.0000
  H   H30       1.0  0.46450  0.43605  0.13340  1.0000
  C   C71       1.0  0.43380  0.42190  0.99394  1.0000
  C   C72       1.0  0.38450  0.45400  0.93534  1.0000
  H   H31       1.0  0.03550  0.18605  0.36660  1.0000
  C   C73       1.0  0.06620  0.17190  0.50606  1.0000
  C   C74       1.0  0.11550  0.20400  0.56466  1.0000
  O   O37       1.0  0.81287  0.47245  0.15166  1.0000
  O   O38       1.0  0.92029  0.02255  0.18328  1.0000
  O   O39       1.0  0.70916  0.01940  0.19476  1.0000
  O   O40       1.0  0.71160  0.08885  0.27482  1.0000
  O   O41       1.0  0.15887  0.26355  0.57097  1.0000
  O   O42       1.0  0.10700  0.16350  0.60874  1.0000
  H   H32       1.0  0.12350  0.19565  0.63820  1.0000
  N   N13       1.0  0.84990  0.08890  0.32740  1.0000
  N   N14       1.0  0.92948  0.06515  0.29052  1.0000
  C   C75       1.0  0.97070  0.11995  0.39474  1.0000
  C   C76       1.0  0.96130  0.09485  0.44550  1.0000
  H   H33       1.0  0.92260  0.06115  0.44230  1.0000
  C   C77       1.0  0.91640  0.09245  0.33722  1.0000
  C   C78       1.0  0.74120  0.05385  0.24491  1.0000
  C   C79       1.0  0.81790  0.05575  0.27087  1.0000
  C   C80       1.0  0.86480  0.00860  0.19054  1.0000
  C   C81       1.0  0.86640  0.04070  0.24786  1.0000
  C   C82       1.0  0.07560  0.19740  0.45510  1.0000
  H   H34       1.0  0.11360  0.23265  0.45830  1.0000
  C   C83       1.0  0.00930  0.11985  0.50060  1.0000
  H   H35       1.0  0.00320  0.10150  0.53410  1.0000
  C   C84       1.0  0.02840  0.17030  0.40010  1.0000
  O   O43       1.0  0.31287  0.22245  0.15166  1.0000
  O   O44       1.0  0.42029  0.27255  0.18328  1.0000
  O   O45       1.0  0.20916  0.26940  0.19476  1.0000
  O   O46       1.0  0.21160  0.33885  0.27482  1.0000
  O   O47       1.0  0.65887  0.01355  0.57097  1.0000
  O   O48       1.0  0.60700  0.41350  0.60874  1.0000
  H   H36       1.0  0.62350  0.44565  0.63820  1.0000
  N   N15       1.0  0.34990  0.33890  0.32740  1.0000
  N   N16       1.0  0.42948  0.31515  0.29052  1.0000
  C   C85       1.0  0.47070  0.36995  0.39474  1.0000
  C   C86       1.0  0.46130  0.34485  0.44550  1.0000
  H   H37       1.0  0.42260  0.31115  0.44230  1.0000
  C   C87       1.0  0.41640  0.34245  0.33722  1.0000
  C   C88       1.0  0.24120  0.30385  0.24491  1.0000
  C   C89       1.0  0.31790  0.30575  0.27087  1.0000
  C   C90       1.0  0.36480  0.25860  0.19054  1.0000
  C   C91       1.0  0.36640  0.29070  0.24786  1.0000
  C   C92       1.0  0.57560  0.44740  0.45510  1.0000
  H   H38       1.0  0.61360  0.48265  0.45830  1.0000
  C   C93       1.0  0.50930  0.36985  0.50060  1.0000
  H   H39       1.0  0.50320  0.35150  0.53410  1.0000
  C   C94       1.0  0.52840  0.42030  0.40010  1.0000
  H   H40       1.0  0.53550  0.43605  0.36660  1.0000
  C   C95       1.0  0.56620  0.42190  0.50606  1.0000
  C   C96       1.0  0.61550  0.45400  0.56466  1.0000
  N   N17       1.0  0.76765  0.44480  0.90999  1.0000
  C   C97       1.0  0.73050  0.02100  0.88780  1.0000
  H   H41       1.0  0.70810  0.02600  0.84710  1.0000
  C   C98       1.0  0.79710  0.44180  0.96850  1.0000
  H   H42       1.0  0.82240  0.38975  0.98610  1.0000
  C   C99       1.0  0.72370  0.09100  0.92100  1.0000
  H   H43       1.0  0.69800  0.14230  0.90270  1.0000
  C   C100      1.0  0.75420  0.08730  0.98160  1.0000
  C   C101      1.0  0.79270  0.01100  0.00450  1.0000
  H   H44       1.0  0.81620  0.00555  0.04510  1.0000
  N   N18       1.0  0.73235  0.30520  0.09001  1.0000
  C   C102      1.0  0.76950  0.22900  0.11220  1.0000
  H   H45       1.0  0.79190  0.22400  0.15290  1.0000
  C   C103      1.0  0.70290  0.30820  0.03150  1.0000
  H   H46       1.0  0.67760  0.36025  0.01390  1.0000
  C   C104      1.0  0.77630  0.15900  0.07900  1.0000
  H   H47       1.0  0.80200  0.10770  0.09730  1.0000
  C   C105      1.0  0.74580  0.16270  0.01840  1.0000
  C   C106      1.0  0.70730  0.23900  0.99550  1.0000
  H   H48       1.0  0.68380  0.24445  0.95490  1.0000
  N   N19       1.0  0.23235  0.05520  0.09001  1.0000
  C   C107      1.0  0.26950  0.47900  0.11220  1.0000
  H   H49       1.0  0.29190  0.47400  0.15290  1.0000
  C   C108      1.0  0.20290  0.05820  0.03150  1.0000
  H   H50       1.0  0.17760  0.11025  0.01390  1.0000
  C   C109      1.0  0.27630  0.40900  0.07900  1.0000
  H   H51       1.0  0.30200  0.35770  0.09730  1.0000
  C   C110      1.0  0.24580  0.41270  0.01840  1.0000
  C   C111      1.0  0.20730  0.48900  0.99550  1.0000
  N   N20       1.0  0.26765  0.19480  0.90999  1.0000
  H   H52       1.0  0.18380  0.49445  0.95490  1.0000
  C   C112      1.0  0.23050  0.27100  0.88780  1.0000
  H   H53       1.0  0.20810  0.27600  0.84710  1.0000
  C   C113      1.0  0.29710  0.19180  0.96850  1.0000
  H   H54       1.0  0.32240  0.13975  0.98610  1.0000
  C   C114      1.0  0.22370  0.34100  0.92100  1.0000
  H   H55       1.0  0.19800  0.39230  0.90270  1.0000
  C   C115      1.0  0.25420  0.33730  0.98160  1.0000
  C   C116      1.0  0.29270  0.26100  0.00450  1.0000
  H   H56       1.0  0.31620  0.25555  0.04510  1.0000
  N   N21       1.0  0.26765  0.30520  0.40999  1.0000
  C   C117      1.0  0.23050  0.22900  0.38780  1.0000
  H   H57       1.0  0.20810  0.22400  0.34710  1.0000
  C   C118      1.0  0.29710  0.30820  0.46850  1.0000
  H   H58       1.0  0.32240  0.36025  0.48610  1.0000
  C   C119      1.0  0.22370  0.15900  0.42100  1.0000
  H   H59       1.0  0.19800  0.10770  0.40270  1.0000
  C   C120      1.0  0.25420  0.16270  0.48160  1.0000
  C   C121      1.0  0.29270  0.23900  0.50450  1.0000
  H   H60       1.0  0.31620  0.24445  0.54510  1.0000
  N   N22       1.0  0.23235  0.44480  0.59001  1.0000
  C   C122      1.0  0.26950  0.02100  0.61220  1.0000
  H   H61       1.0  0.29190  0.02600  0.65290  1.0000
  C   C123      1.0  0.20290  0.44180  0.53150  1.0000
  H   H62       1.0  0.17760  0.38975  0.51390  1.0000
  C   C124      1.0  0.27630  0.09100  0.57900  1.0000
  H   H63       1.0  0.30200  0.14230  0.59730  1.0000
  C   C125      1.0  0.24580  0.08730  0.51840  1.0000
  C   C126      1.0  0.20730  0.01100  0.49550  1.0000
  H   H64       1.0  0.18380  0.00555  0.45490  1.0000
  C   C127      1.0  0.70290  0.19180  0.53150  1.0000
  H   H65       1.0  0.67760  0.13975  0.51390  1.0000
  C   C128      1.0  0.77630  0.34100  0.57900  1.0000
  H   H66       1.0  0.80200  0.39230  0.59730  1.0000
  C   C129      1.0  0.74580  0.33730  0.51840  1.0000
  C   C130      1.0  0.70730  0.26100  0.49550  1.0000
  H   H67       1.0  0.68380  0.25555  0.45490  1.0000
  N   N23       1.0  0.73235  0.19480  0.59001  1.0000
  N   N24       1.0  0.76765  0.05520  0.40999  1.0000
  C   C131      1.0  0.73050  0.47900  0.38780  1.0000
  H   H68       1.0  0.70810  0.47400  0.34710  1.0000
  C   C132      1.0  0.79710  0.05820  0.46850  1.0000
  H   H69       1.0  0.82240  0.11025  0.48610  1.0000
  C   C133      1.0  0.72370  0.40900  0.42100  1.0000
  H   H70       1.0  0.69800  0.35770  0.40270  1.0000
  C   C134      1.0  0.75420  0.41270  0.48160  1.0000
  C   C135      1.0  0.79270  0.48900  0.50450  1.0000
  H   H71       1.0  0.81620  0.49445  0.54510  1.0000
  C   C136      1.0  0.76950  0.27100  0.61220  1.0000
  H   H72       1.0  0.79190  0.27600  0.65290  1.0000
  Co  Co1       1.0  0.77584  0.34147  0.85240  1.0000
  Co  Co2       1.0  0.27584  0.40853  0.35240  1.0000
  Co  Co3       1.0  0.27584  0.09147  0.85240  1.0000
  Co  Co4       1.0  0.00000  0.42452  0.75000  1.0000
  Co  Co5       1.0  0.22416  0.34147  0.64760  1.0000
  Co  Co6       1.0  0.50000  0.17452  0.75000  1.0000
  Co  Co7       1.0  0.00000  0.07548  0.25000  1.0000
  Co  Co8       1.0  0.50000  0.32548  0.25000  1.0000
  Co  Co9       1.0  0.72416  0.09147  0.64760  1.0000
  Co  Co10      1.0  0.22416  0.15853  0.14760  1.0000
  Co  Co11      1.0  0.72416  0.40853  0.14760  1.0000
  Co  Co12      1.0  0.77584  0.15853  0.35240  1.0000
  O   O49       1.0  0.81287  0.52755  0.65166  1.0000
  O   O50       1.0  0.92029  0.97745  0.68328  1.0000
  O   O51       1.0  0.70916  0.98060  0.69476  1.0000
  O   O52       1.0  0.71160  0.91115  0.77482  1.0000
  O   O53       1.0  0.15887  0.73645  0.07097  1.0000
  O   O54       1.0  0.10700  0.83650  0.10874  1.0000
  H   H73       1.0  0.12350  0.80435  0.13820  1.0000
  N   N25       1.0  0.84990  0.91110  0.82740  1.0000
  N   N26       1.0  0.92948  0.93485  0.79052  1.0000
  C   C137      1.0  0.97070  0.88005  0.89474  1.0000
  C   C138      1.0  0.96130  0.90515  0.94550  1.0000
  H   H74       1.0  0.92260  0.93885  0.94230  1.0000
  C   C139      1.0  0.91640  0.90755  0.83722  1.0000
  C   C140      1.0  0.74120  0.94615  0.74491  1.0000
  C   C141      1.0  0.81790  0.94425  0.77087  1.0000
  C   C142      1.0  0.86480  0.99140  0.69054  1.0000
  C   C143      1.0  0.86640  0.95930  0.74786  1.0000
  C   C144      1.0  0.07560  0.80260  0.95510  1.0000
  H   H75       1.0  0.11360  0.76735  0.95830  1.0000
  C   C145      1.0  0.00930  0.88015  0.00060  1.0000
  H   H76       1.0  0.00320  0.89850  0.03410  1.0000
  C   C146      1.0  0.02840  0.82970  0.90010  1.0000
  H   H77       1.0  0.03550  0.81395  0.86660  1.0000
  C   C147      1.0  0.06620  0.82810  0.00606  1.0000
  C   C148      1.0  0.11550  0.79600  0.06466  1.0000
  O   O55       1.0  0.31287  0.77755  0.65166  1.0000
  O   O56       1.0  0.42029  0.72745  0.68328  1.0000
  O   O57       1.0  0.20916  0.73060  0.69476  1.0000
  O   O58       1.0  0.21160  0.66115  0.77482  1.0000
  O   O59       1.0  0.65887  0.98645  0.07097  1.0000
  O   O60       1.0  0.60700  0.58650  0.10874  1.0000
  H   H78       1.0  0.62350  0.55435  0.13820  1.0000
  N   N27       1.0  0.34990  0.66110  0.82740  1.0000
  N   N28       1.0  0.42948  0.68485  0.79052  1.0000
  C   C149      1.0  0.47070  0.63005  0.89474  1.0000
  C   C150      1.0  0.46130  0.65515  0.94550  1.0000
  H   H79       1.0  0.42260  0.68885  0.94230  1.0000
  C   C151      1.0  0.41640  0.65755  0.83722  1.0000
  C   C152      1.0  0.24120  0.69615  0.74491  1.0000
  C   C153      1.0  0.31790  0.69425  0.77087  1.0000
  C   C154      1.0  0.36480  0.74140  0.69054  1.0000
  C   C155      1.0  0.36640  0.70930  0.74786  1.0000
  C   C156      1.0  0.57560  0.55260  0.95510  1.0000
  H   H80       1.0  0.61360  0.51735  0.95830  1.0000
  C   C157      1.0  0.50930  0.63015  0.00060  1.0000
  H   H81       1.0  0.50320  0.64850  0.03410  1.0000
  C   C158      1.0  0.52840  0.57970  0.90010  1.0000
  H   H82       1.0  0.53550  0.56395  0.86660  1.0000
  C   C159      1.0  0.56620  0.57810  0.00606  1.0000
  C   C160      1.0  0.61550  0.54600  0.06466  1.0000
  O   O61       1.0  0.18713  0.52755  0.84834  1.0000
  O   O62       1.0  0.07971  0.97745  0.81672  1.0000
  O   O63       1.0  0.29084  0.98060  0.80524  1.0000
  O   O64       1.0  0.28840  0.91115  0.72518  1.0000
  O   O65       1.0  0.84113  0.73645  0.42903  1.0000
  O   O66       1.0  0.89300  0.83650  0.39126  1.0000
  H   H83       1.0  0.87650  0.80435  0.36180  1.0000
  N   N29       1.0  0.15010  0.91110  0.67260  1.0000
  N   N30       1.0  0.07052  0.93485  0.70948  1.0000
  C   C161      1.0  0.02930  0.88005  0.60526  1.0000
  C   C162      1.0  0.03870  0.90515  0.55450  1.0000
  H   H84       1.0  0.07740  0.93885  0.55770  1.0000
  C   C163      1.0  0.08360  0.90755  0.66278  1.0000
  C   C164      1.0  0.25880  0.94615  0.75509  1.0000
  C   C165      1.0  0.18210  0.94425  0.72913  1.0000
  C   C166      1.0  0.13520  0.99140  0.80946  1.0000
  C   C167      1.0  0.13360  0.95930  0.75214  1.0000
  C   C168      1.0  0.92440  0.80260  0.54490  1.0000
  H   H85       1.0  0.88640  0.76735  0.54170  1.0000
  C   C169      1.0  0.99070  0.88015  0.49940  1.0000
  H   H86       1.0  0.99680  0.89850  0.46590  1.0000
  C   C170      1.0  0.97160  0.82970  0.59990  1.0000
  H   H87       1.0  0.96450  0.81395  0.63340  1.0000
  C   C171      1.0  0.93380  0.82810  0.49394  1.0000
  C   C172      1.0  0.88450  0.79600  0.43534  1.0000
  C   C173      1.0  0.58360  0.65755  0.66278  1.0000
  C   C174      1.0  0.75880  0.69615  0.75509  1.0000
  C   C175      1.0  0.68210  0.69425  0.72913  1.0000
  C   C176      1.0  0.63520  0.74140  0.80946  1.0000
  C   C177      1.0  0.63360  0.70930  0.75214  1.0000
  C   C178      1.0  0.42440  0.55260  0.54490  1.0000
  H   H88       1.0  0.38640  0.51735  0.54170  1.0000
  C   C179      1.0  0.49070  0.63015  0.49940  1.0000
  H   H89       1.0  0.49680  0.64850  0.46590  1.0000
  C   C180      1.0  0.47160  0.57970  0.59990  1.0000
  H   H90       1.0  0.46450  0.56395  0.63340  1.0000
  C   C181      1.0  0.43380  0.57810  0.49394  1.0000
  C   C182      1.0  0.38450  0.54600  0.43534  1.0000
  O   O67       1.0  0.68713  0.77755  0.84834  1.0000
  O   O68       1.0  0.57971  0.72745  0.81672  1.0000
  O   O69       1.0  0.79084  0.73060  0.80524  1.0000
  O   O70       1.0  0.78840  0.66115  0.72518  1.0000
  O   O71       1.0  0.34113  0.98645  0.42903  1.0000
  O   O72       1.0  0.39300  0.58650  0.39126  1.0000
  H   H91       1.0  0.37650  0.55435  0.36180  1.0000
  N   N31       1.0  0.65010  0.66110  0.67260  1.0000
  N   N32       1.0  0.57052  0.68485  0.70948  1.0000
  C   C183      1.0  0.52930  0.63005  0.60526  1.0000
  C   C184      1.0  0.53870  0.65515  0.55450  1.0000
  H   H92       1.0  0.57740  0.68885  0.55770  1.0000
  O   O73       1.0  0.18713  0.97245  0.34834  1.0000
  O   O74       1.0  0.07971  0.52255  0.31672  1.0000
  O   O75       1.0  0.29084  0.51940  0.30524  1.0000
  O   O76       1.0  0.28840  0.58885  0.22518  1.0000
  O   O77       1.0  0.84113  0.76355  0.92903  1.0000
  O   O78       1.0  0.89300  0.66350  0.89126  1.0000
  H   H93       1.0  0.87650  0.69565  0.86180  1.0000
  N   N33       1.0  0.15010  0.58890  0.17260  1.0000
  N   N34       1.0  0.07052  0.56515  0.20948  1.0000
  C   C185      1.0  0.02930  0.61995  0.10526  1.0000
  C   C186      1.0  0.03870  0.59485  0.05450  1.0000
  H   H94       1.0  0.07740  0.56115  0.05770  1.0000
  C   C187      1.0  0.08360  0.59245  0.16278  1.0000
  C   C188      1.0  0.25880  0.55385  0.25509  1.0000
  C   C189      1.0  0.18210  0.55575  0.22913  1.0000
  C   C190      1.0  0.13520  0.50860  0.30946  1.0000
  C   C191      1.0  0.13360  0.54070  0.25214  1.0000
  C   C192      1.0  0.92440  0.69740  0.04490  1.0000
  H   H95       1.0  0.88640  0.73265  0.04170  1.0000
  C   C193      1.0  0.99070  0.61985  0.99940  1.0000
  H   H96       1.0  0.99680  0.60150  0.96590  1.0000
  C   C194      1.0  0.97160  0.67030  0.09990  1.0000
  H   H97       1.0  0.96450  0.68605  0.13340  1.0000
  C   C195      1.0  0.93380  0.67190  0.99394  1.0000
  C   C196      1.0  0.88450  0.70400  0.93534  1.0000
  O   O79       1.0  0.68713  0.72245  0.34834  1.0000
  O   O80       1.0  0.57971  0.77255  0.31672  1.0000
  O   O81       1.0  0.79084  0.76940  0.30524  1.0000
  O   O82       1.0  0.78840  0.83885  0.22518  1.0000
  O   O83       1.0  0.34113  0.51355  0.92903  1.0000
  O   O84       1.0  0.39300  0.91350  0.89126  1.0000
  H   H98       1.0  0.37650  0.94565  0.86180  1.0000
  N   N35       1.0  0.65010  0.83890  0.17260  1.0000
  N   N36       1.0  0.57052  0.81515  0.20948  1.0000
  C   C197      1.0  0.52930  0.86995  0.10526  1.0000
  C   C198      1.0  0.53870  0.84485  0.05450  1.0000
  H   H99       1.0  0.57740  0.81115  0.05770  1.0000
  C   C199      1.0  0.58360  0.84245  0.16278  1.0000
  C   C200      1.0  0.75880  0.80385  0.25509  1.0000
  C   C201      1.0  0.68210  0.80575  0.22913  1.0000
  C   C202      1.0  0.63520  0.75860  0.30946  1.0000
  C   C203      1.0  0.63360  0.79070  0.25214  1.0000
  C   C204      1.0  0.42440  0.94740  0.04490  1.0000
  H   H100      1.0  0.38640  0.98265  0.04170  1.0000
  C   C205      1.0  0.49070  0.86985  0.99940  1.0000
  H   H101      1.0  0.49680  0.85150  0.96590  1.0000
  C   C206      1.0  0.47160  0.92030  0.09990  1.0000
  H   H102      1.0  0.46450  0.93605  0.13340  1.0000
  C   C207      1.0  0.43380  0.92190  0.99394  1.0000
  C   C208      1.0  0.38450  0.95400  0.93534  1.0000
  H   H103      1.0  0.03550  0.68605  0.36660  1.0000
  C   C209      1.0  0.06620  0.67190  0.50606  1.0000
  C   C210      1.0  0.11550  0.70400  0.56466  1.0000
  O   O85       1.0  0.81287  0.97245  0.15166  1.0000
  O   O86       1.0  0.92029  0.52255  0.18328  1.0000
  O   O87       1.0  0.70916  0.51940  0.19476  1.0000
  O   O88       1.0  0.71160  0.58885  0.27482  1.0000
  O   O89       1.0  0.15887  0.76355  0.57097  1.0000
  O   O90       1.0  0.10700  0.66350  0.60874  1.0000
  H   H104      1.0  0.12350  0.69565  0.63820  1.0000
  N   N37       1.0  0.84990  0.58890  0.32740  1.0000
  N   N38       1.0  0.92948  0.56515  0.29052  1.0000
  C   C211      1.0  0.97070  0.61995  0.39474  1.0000
  C   C212      1.0  0.96130  0.59485  0.44550  1.0000
  H   H105      1.0  0.92260  0.56115  0.44230  1.0000
  C   C213      1.0  0.91640  0.59245  0.33722  1.0000
  C   C214      1.0  0.74120  0.55385  0.24491  1.0000
  C   C215      1.0  0.81790  0.55575  0.27087  1.0000
  C   C216      1.0  0.86480  0.50860  0.19054  1.0000
  C   C217      1.0  0.86640  0.54070  0.24786  1.0000
  C   C218      1.0  0.07560  0.69740  0.45510  1.0000
  H   H106      1.0  0.11360  0.73265  0.45830  1.0000
  C   C219      1.0  0.00930  0.61985  0.50060  1.0000
  H   H107      1.0  0.00320  0.60150  0.53410  1.0000
  C   C220      1.0  0.02840  0.67030  0.40010  1.0000
  O   O91       1.0  0.31287  0.72245  0.15166  1.0000
  O   O92       1.0  0.42029  0.77255  0.18328  1.0000
  O   O93       1.0  0.20916  0.76940  0.19476  1.0000
  O   O94       1.0  0.21160  0.83885  0.27482  1.0000
  O   O95       1.0  0.65887  0.51355  0.57097  1.0000
  O   O96       1.0  0.60700  0.91350  0.60874  1.0000
  H   H108      1.0  0.62350  0.94565  0.63820  1.0000
  N   N39       1.0  0.34990  0.83890  0.32740  1.0000
  N   N40       1.0  0.42948  0.81515  0.29052  1.0000
  C   C221      1.0  0.47070  0.86995  0.39474  1.0000
  C   C222      1.0  0.46130  0.84485  0.44550  1.0000
  H   H109      1.0  0.42260  0.81115  0.44230  1.0000
  C   C223      1.0  0.41640  0.84245  0.33722  1.0000
  C   C224      1.0  0.24120  0.80385  0.24491  1.0000
  C   C225      1.0  0.31790  0.80575  0.27087  1.0000
  C   C226      1.0  0.36480  0.75860  0.19054  1.0000
  C   C227      1.0  0.36640  0.79070  0.24786  1.0000
  C   C228      1.0  0.57560  0.94740  0.45510  1.0000
  H   H110      1.0  0.61360  0.98265  0.45830  1.0000
  C   C229      1.0  0.50930  0.86985  0.50060  1.0000
  H   H111      1.0  0.50320  0.85150  0.53410  1.0000
  C   C230      1.0  0.52840  0.92030  0.40010  1.0000
  H   H112      1.0  0.53550  0.93605  0.36660  1.0000
  C   C231      1.0  0.56620  0.92190  0.50606  1.0000
  C   C232      1.0  0.61550  0.95400  0.56466  1.0000
  N   N41       1.0  0.76765  0.94480  0.90999  1.0000
  C   C233      1.0  0.73050  0.52100  0.88780  1.0000
  H   H113      1.0  0.70810  0.52600  0.84710  1.0000
  C   C234      1.0  0.79710  0.94180  0.96850  1.0000
  H   H114      1.0  0.82240  0.88975  0.98610  1.0000
  C   C235      1.0  0.72370  0.59100  0.92100  1.0000
  H   H115      1.0  0.69800  0.64230  0.90270  1.0000
  C   C236      1.0  0.75420  0.58730  0.98160  1.0000
  C   C237      1.0  0.79270  0.51100  0.00450  1.0000
  H   H116      1.0  0.81620  0.50555  0.04510  1.0000
  N   N42       1.0  0.73235  0.80520  0.09001  1.0000
  C   C238      1.0  0.76950  0.72900  0.11220  1.0000
  H   H117      1.0  0.79190  0.72400  0.15290  1.0000
  C   C239      1.0  0.70290  0.80820  0.03150  1.0000
  H   H118      1.0  0.67760  0.86025  0.01390  1.0000
  C   C240      1.0  0.77630  0.65900  0.07900  1.0000
  H   H119      1.0  0.80200  0.60770  0.09730  1.0000
  C   C241      1.0  0.74580  0.66270  0.01840  1.0000
  C   C242      1.0  0.70730  0.73900  0.99550  1.0000
  H   H120      1.0  0.68380  0.74445  0.95490  1.0000
  N   N43       1.0  0.23235  0.55520  0.09001  1.0000
  C   C243      1.0  0.26950  0.97900  0.11220  1.0000
  H   H121      1.0  0.29190  0.97400  0.15290  1.0000
  C   C244      1.0  0.20290  0.55820  0.03150  1.0000
  H   H122      1.0  0.17760  0.61025  0.01390  1.0000
  C   C245      1.0  0.27630  0.90900  0.07900  1.0000
  H   H123      1.0  0.30200  0.85770  0.09730  1.0000
  C   C246      1.0  0.24580  0.91270  0.01840  1.0000
  C   C247      1.0  0.20730  0.98900  0.99550  1.0000
  N   N44       1.0  0.26765  0.69480  0.90999  1.0000
  H   H124      1.0  0.18380  0.99445  0.95490  1.0000
  C   C248      1.0  0.23050  0.77100  0.88780  1.0000
  H   H125      1.0  0.20810  0.77600  0.84710  1.0000
  C   C249      1.0  0.29710  0.69180  0.96850  1.0000
  H   H126      1.0  0.32240  0.63975  0.98610  1.0000
  C   C250      1.0  0.22370  0.84100  0.92100  1.0000
  H   H127      1.0  0.19800  0.89230  0.90270  1.0000
  C   C251      1.0  0.25420  0.83730  0.98160  1.0000
  C   C252      1.0  0.29270  0.76100  0.00450  1.0000
  H   H128      1.0  0.31620  0.75555  0.04510  1.0000
  N   N45       1.0  0.26765  0.80520  0.40999  1.0000
  C   C253      1.0  0.23050  0.72900  0.38780  1.0000
  H   H129      1.0  0.20810  0.72400  0.34710  1.0000
  C   C254      1.0  0.29710  0.80820  0.46850  1.0000
  H   H130      1.0  0.32240  0.86025  0.48610  1.0000
  C   C255      1.0  0.22370  0.65900  0.42100  1.0000
  H   H131      1.0  0.19800  0.60770  0.40270  1.0000
  C   C256      1.0  0.25420  0.66270  0.48160  1.0000
  C   C257      1.0  0.29270  0.73900  0.50450  1.0000
  H   H132      1.0  0.31620  0.74445  0.54510  1.0000
  N   N46       1.0  0.23235  0.94480  0.59001  1.0000
  C   C258      1.0  0.26950  0.52100  0.61220  1.0000
  H   H133      1.0  0.29190  0.52600  0.65290  1.0000
  C   C259      1.0  0.20290  0.94180  0.53150  1.0000
  H   H134      1.0  0.17760  0.88975  0.51390  1.0000
  C   C260      1.0  0.27630  0.59100  0.57900  1.0000
  H   H135      1.0  0.30200  0.64230  0.59730  1.0000
  C   C261      1.0  0.24580  0.58730  0.51840  1.0000
  C   C262      1.0  0.20730  0.51100  0.49550  1.0000
  H   H136      1.0  0.18380  0.50555  0.45490  1.0000
  C   C263      1.0  0.70290  0.69180  0.53150  1.0000
  H   H137      1.0  0.67760  0.63975  0.51390  1.0000
  C   C264      1.0  0.77630  0.84100  0.57900  1.0000
  H   H138      1.0  0.80200  0.89230  0.59730  1.0000
  C   C265      1.0  0.74580  0.83730  0.51840  1.0000
  C   C266      1.0  0.70730  0.76100  0.49550  1.0000
  H   H139      1.0  0.68380  0.75555  0.45490  1.0000
  N   N47       1.0  0.73235  0.69480  0.59001  1.0000
  N   N48       1.0  0.76765  0.55520  0.40999  1.0000
  C   C267      1.0  0.73050  0.97900  0.38780  1.0000
  H   H140      1.0  0.70810  0.97400  0.34710  1.0000
  C   C268      1.0  0.79710  0.55820  0.46850  1.0000
  H   H141      1.0  0.82240  0.61025  0.48610  1.0000
  C   C269      1.0  0.72370  0.90900  0.42100  1.0000
  H   H142      1.0  0.69800  0.85770  0.40270  1.0000
  C   C270      1.0  0.75420  0.91270  0.48160  1.0000
  C   C271      1.0  0.79270  0.98900  0.50450  1.0000
  H   H143      1.0  0.81620  0.99445  0.54510  1.0000
  C   C272      1.0  0.76950  0.77100  0.61220  1.0000
  H   H144      1.0  0.79190  0.77600  0.65290  1.0000
  Co  Co13      1.0  0.77584  0.84147  0.85240  1.0000
  Co  Co14      1.0  0.27584  0.90853  0.35240  1.0000
  Co  Co15      1.0  0.27584  0.59147  0.85240  1.0000
  Co  Co16      1.0  0.00000  0.92452  0.75000  1.0000
  Co  Co17      1.0  0.22416  0.84147  0.64760  1.0000
  Co  Co18      1.0  0.50000  0.67452  0.75000  1.0000
  Co  Co19      1.0  0.00000  0.57548  0.25000  1.0000
  Co  Co20      1.0  0.50000  0.82548  0.25000  1.0000
  Co  Co21      1.0  0.72416  0.59147  0.64760  1.0000
  Co  Co22      1.0  0.22416  0.65853  0.14760  1.0000
  Co  Co23      1.0  0.72416  0.90853  0.14760  1.0000
  Co  Co24      1.0  0.77584  0.65853  0.35240  1.0000
