data_image0
_chemical_formula_structural       OHO3HC2HCHOHO3HC2HCHO3HOHC2HCHO3HOHC2HCHO3C2ODy2
_chemical_formula_sum              "O20 H16 C14 Dy2"
_cell_length_a       8.5359
_cell_length_b       8.7588
_cell_length_c       9.7871
_cell_angle_alpha    98.271
_cell_angle_beta     112.382
_cell_angle_gamma    108.774

_space_group_name_H-M_alt    "P 1"
_space_group_IT_number       1

loop_
  _space_group_symop_operation_xyz
  'x, y, z'

loop_
  _atom_site_type_symbol
  _atom_site_label
  _atom_site_symmetry_multiplicity
  _atom_site_fract_x
  _atom_site_fract_y
  _atom_site_fract_z
  _atom_site_occupancy
  O   O1        1.0  0.49468  0.59865  0.25817  1.0000
  H   H1        1.0  0.60100  0.59300  0.29300  1.0000
  O   O2        1.0  0.23867  0.75127  0.97887  1.0000
  O   O3        1.0  0.21765  0.68033  0.18293  1.0000
  O   O4        1.0  0.25127  0.39278  0.92711  1.0000
  H   H2        1.0  0.16930  0.40560  0.85420  1.0000
  C   C1        1.0  0.29400  0.70220  0.09510  1.0000
  C   C2        1.0  0.42520  0.53410  0.98356  1.0000
  H   H3        1.0  0.42170  0.59010  0.90100  1.0000
  C   C3        1.0  0.46430  0.66340  0.12886  1.0000
  H   H4        1.0  0.57490  0.76950  0.15570  1.0000
  O   O5        1.0  0.50532  0.40135  0.74183  1.0000
  H   H5        1.0  0.39900  0.40700  0.70700  1.0000
  O   O6        1.0  0.76133  0.24873  0.02113  1.0000
  O   O7        1.0  0.78235  0.31967  0.81707  1.0000
  O   O8        1.0  0.74873  0.60722  0.07289  1.0000
  H   H6        1.0  0.83070  0.59440  0.14580  1.0000
  C   C4        1.0  0.70600  0.29780  0.90490  1.0000
  C   C5        1.0  0.57480  0.46590  0.01644  1.0000
  H   H7        1.0  0.57830  0.40990  0.09900  1.0000
  C   C6        1.0  0.53570  0.33660  0.87114  1.0000
  H   H8        1.0  0.42510  0.23050  0.84430  1.0000
  O   O9        1.0  0.39427  0.34145  0.41651  1.0000
  O   O10       1.0  0.28090  0.07378  0.41597  1.0000
  O   O11       1.0  0.09926  0.30537  0.18340  1.0000
  H   H9        1.0  0.98800  0.28800  0.11500  1.0000
  O   O12       1.0  0.24258  0.11934  0.04310  1.0000
  H   H10       1.0  0.23140  0.20440  0.01790  1.0000
  C   C7        1.0  0.26910  0.18650  0.35880  1.0000
  C   C8        1.0  0.09580  0.14860  0.20930  1.0000
  H   H11       1.0  0.98260  0.09010  0.22170  1.0000
  C   C9        1.0  0.09310  0.03340  0.07390  1.0000
  H   H12       1.0  0.11040  0.93380  0.10490  1.0000
  O   O13       1.0  0.60573  0.65855  0.58349  1.0000
  O   O14       1.0  0.71910  0.92622  0.58403  1.0000
  O   O15       1.0  0.90074  0.69463  0.81660  1.0000
  H   H13       1.0  0.01200  0.71200  0.88500  1.0000
  O   O16       1.0  0.75742  0.88066  0.95690  1.0000
  H   H14       1.0  0.76860  0.79560  0.98210  1.0000
  C   C10       1.0  0.73090  0.81350  0.64120  1.0000
  C   C11       1.0  0.90420  0.85140  0.79070  1.0000
  H   H15       1.0  0.01740  0.90990  0.77830  1.0000
  C   C12       1.0  0.90690  0.96660  0.92610  1.0000
  H   H16       1.0  0.88960  0.06620  0.89510  1.0000
  O   O17       1.0  0.20888  0.47421  0.56847  1.0000
  O   O18       1.0  0.98235  0.53217  0.32395  1.0000
  O   O19       1.0  0.01765  0.46783  0.67605  1.0000
  C   C13       1.0  0.93490  0.51680  0.42880  1.0000
  C   C14       1.0  0.06510  0.48320  0.57120  1.0000
  O   O20       1.0  0.79112  0.52579  0.43153  1.0000
  Dy  Dy1       1.0  0.29873  0.56630  0.38107  1.0000
  Dy  Dy2       1.0  0.70127  0.43370  0.61893  1.0000
