data_image0
_chemical_formula_structural       O2HOHOCHC2HO2HOHOCHC2HOHOHO2CHC2HOHOHO2CHC2HO3C2OGd2O2HOHOCHC2HO2HOHOCHC2HOHOHO2CHC2HOHOHO2CHC2HO3C2OGd2
_chemical_formula_sum              "O40 H32 C28 Gd4"
_cell_length_a       12.2278
_cell_length_b       8.7718
_cell_length_c       13.1543
_cell_angle_alpha    101.048
_cell_angle_beta     101.805
_cell_angle_gamma    96.546

_space_group_name_H-M_alt    "P 1"
_space_group_IT_number       1

loop_
  _space_group_symop_operation_xyz
  'x, y, z'

loop_
  _atom_site_type_symbol
  _atom_site_label
  _atom_site_symmetry_multiplicity
  _atom_site_fract_x
  _atom_site_fract_y
  _atom_site_fract_z
  _atom_site_occupancy
  O   O1        1.0  0.03250  0.10660  0.80050  1.0000
  O   O2        1.0  0.31510  0.02900  0.82930  1.0000
  H   H1        1.0  0.33700  0.93600  0.82500  1.0000
  O   O3        1.0  0.25265  0.21270  0.01030  1.0000
  H   H2        1.0  0.22980  0.24640  0.06510  1.0000
  O   O4        1.0  0.18195  0.20070  0.74420  1.0000
  C   C1        1.0  0.20420  0.00830  0.85050  1.0000
  H   H3        1.0  0.16775  0.89630  0.82030  1.0000
  C   C2        1.0  0.13390  0.11520  0.79400  1.0000
  C   C3        1.0  0.20860  0.04790  0.97040  1.0000
  H   H4        1.0  0.13120  0.02390  0.98300  1.0000
  O   O5        1.0  0.46750  0.89340  0.19950  1.0000
  O   O6        1.0  0.18490  0.97100  0.17070  1.0000
  H   H5        1.0  0.16300  0.06400  0.17500  1.0000
  O   O7        1.0  0.24735  0.78730  0.98970  1.0000
  H   H6        1.0  0.27020  0.75360  0.93490  1.0000
  O   O8        1.0  0.31805  0.79930  0.25580  1.0000
  C   C4        1.0  0.29580  0.99170  0.14950  1.0000
  H   H7        1.0  0.33225  0.10370  0.17970  1.0000
  C   C5        1.0  0.36610  0.88480  0.20600  1.0000
  C   C6        1.0  0.29140  0.95210  0.02960  1.0000
  H   H8        1.0  0.36880  0.97610  0.01700  1.0000
  O   O9        1.0  0.38345  0.35690  0.90970  1.0000
  H   H9        1.0  0.34150  0.33000  0.95100  1.0000
  O   O10       1.0  0.03365  0.45510  0.81370  1.0000
  H   H10       1.0  0.08650  0.50900  0.79100  1.0000
  O   O11       1.0  0.32975  0.47920  0.71240  1.0000
  O   O12       1.0  0.32915  0.71380  0.81540  1.0000
  C   C7        1.0  0.44775  0.50790  0.95870  1.0000
  H   H11       1.0  0.40030  0.57720  0.99370  1.0000
  C   C8        1.0  0.37180  0.59130  0.79160  1.0000
  C   C9        1.0  0.48035  0.57170  0.86740  1.0000
  H   H12       1.0  0.03300  0.67400  0.89470  1.0000
  O   O13       1.0  0.11655  0.64310  0.09030  1.0000
  H   H13       1.0  0.15850  0.67000  0.04900  1.0000
  O   O14       1.0  0.46635  0.54490  0.18630  1.0000
  H   H14       1.0  0.41350  0.49100  0.20900  1.0000
  O   O15       1.0  0.17025  0.52080  0.28760  1.0000
  O   O16       1.0  0.17085  0.28620  0.18460  1.0000
  C   C10       1.0  0.05225  0.49210  0.04130  1.0000
  H   H15       1.0  0.09970  0.42280  0.00630  1.0000
  C   C11       1.0  0.12820  0.40870  0.20840  1.0000
  C   C12       1.0  0.01965  0.42830  0.13260  1.0000
  H   H16       1.0  0.46700  0.32600  0.10530  1.0000
  O   O17       1.0  0.25085  0.80020  0.45150  1.0000
  O   O18       1.0  0.16100  0.04140  0.39010  1.0000
  O   O19       1.0  0.33900  0.95860  0.60990  1.0000
  C   C13       1.0  0.22485  0.07140  0.48230  1.0000
  C   C14       1.0  0.27515  0.92860  0.51770  1.0000
  O   O20       1.0  0.24915  0.19980  0.54850  1.0000
  Gd  Gd1       1.0  0.37358  0.21931  0.72457  1.0000
  Gd  Gd2       1.0  0.12642  0.78069  0.27543  1.0000
  O   O21       1.0  0.53250  0.10660  0.80050  1.0000
  O   O22       1.0  0.81510  0.02900  0.82930  1.0000
  H   H17       1.0  0.83700  0.93600  0.82500  1.0000
  O   O23       1.0  0.75265  0.21270  0.01030  1.0000
  H   H18       1.0  0.72980  0.24640  0.06510  1.0000
  O   O24       1.0  0.68195  0.20070  0.74420  1.0000
  C   C15       1.0  0.70420  0.00830  0.85050  1.0000
  H   H19       1.0  0.66775  0.89630  0.82030  1.0000
  C   C16       1.0  0.63390  0.11520  0.79400  1.0000
  C   C17       1.0  0.70860  0.04790  0.97040  1.0000
  H   H20       1.0  0.63120  0.02390  0.98300  1.0000
  O   O25       1.0  0.96750  0.89340  0.19950  1.0000
  O   O26       1.0  0.68490  0.97100  0.17070  1.0000
  H   H21       1.0  0.66300  0.06400  0.17500  1.0000
  O   O27       1.0  0.74735  0.78730  0.98970  1.0000
  H   H22       1.0  0.77020  0.75360  0.93490  1.0000
  O   O28       1.0  0.81805  0.79930  0.25580  1.0000
  C   C18       1.0  0.79580  0.99170  0.14950  1.0000
  H   H23       1.0  0.83225  0.10370  0.17970  1.0000
  C   C19       1.0  0.86610  0.88480  0.20600  1.0000
  C   C20       1.0  0.79140  0.95210  0.02960  1.0000
  H   H24       1.0  0.86880  0.97610  0.01700  1.0000
  O   O29       1.0  0.88345  0.35690  0.90970  1.0000
  H   H25       1.0  0.84150  0.33000  0.95100  1.0000
  O   O30       1.0  0.53365  0.45510  0.81370  1.0000
  H   H26       1.0  0.58650  0.50900  0.79100  1.0000
  O   O31       1.0  0.82975  0.47920  0.71240  1.0000
  O   O32       1.0  0.82915  0.71380  0.81540  1.0000
  C   C21       1.0  0.94775  0.50790  0.95870  1.0000
  H   H27       1.0  0.90030  0.57720  0.99370  1.0000
  C   C22       1.0  0.87180  0.59130  0.79160  1.0000
  C   C23       1.0  0.98035  0.57170  0.86740  1.0000
  H   H28       1.0  0.53300  0.67400  0.89470  1.0000
  O   O33       1.0  0.61655  0.64310  0.09030  1.0000
  H   H29       1.0  0.65850  0.67000  0.04900  1.0000
  O   O34       1.0  0.96635  0.54490  0.18630  1.0000
  H   H30       1.0  0.91350  0.49100  0.20900  1.0000
  O   O35       1.0  0.67025  0.52080  0.28760  1.0000
  O   O36       1.0  0.67085  0.28620  0.18460  1.0000
  C   C24       1.0  0.55225  0.49210  0.04130  1.0000
  H   H31       1.0  0.59970  0.42280  0.00630  1.0000
  C   C25       1.0  0.62820  0.40870  0.20840  1.0000
  C   C26       1.0  0.51965  0.42830  0.13260  1.0000
  H   H32       1.0  0.96700  0.32600  0.10530  1.0000
  O   O37       1.0  0.75085  0.80020  0.45150  1.0000
  O   O38       1.0  0.66100  0.04140  0.39010  1.0000
  O   O39       1.0  0.83900  0.95860  0.60990  1.0000
  C   C27       1.0  0.72485  0.07140  0.48230  1.0000
  C   C28       1.0  0.77515  0.92860  0.51770  1.0000
  O   O40       1.0  0.74915  0.19980  0.54850  1.0000
  Gd  Gd3       1.0  0.87358  0.21931  0.72457  1.0000
  Gd  Gd4       1.0  0.62642  0.78069  0.27543  1.0000
