data_image0
_chemical_formula_structural       N2HN2HC4H3CH3CH2C4H3CH3N2HN2HC4H3CH3CH2C4H3CH3O3HOC2H2C2HCHC2HCHCH2CO3HOC2H2C2HCHC2HCHCH2C2HCHO2C2H2C2HCHO2C2H2CZn2
_chemical_formula_sum              "N8 H58 C52 O12 Zn2"
_cell_length_a       9.7141
_cell_length_b       12.2458
_cell_length_c       12.5115
_cell_angle_alpha    88.179
_cell_angle_beta     67.77
_cell_angle_gamma    70.806

_space_group_name_H-M_alt    "P 1"
_space_group_IT_number       1

loop_
  _space_group_symop_operation_xyz
  'x, y, z'

loop_
  _atom_site_type_symbol
  _atom_site_label
  _atom_site_symmetry_multiplicity
  _atom_site_fract_x
  _atom_site_fract_y
  _atom_site_fract_z
  _atom_site_occupancy
  N   N1        1.0  0.39810  0.42275  0.41837  1.0000
  N   N2        1.0  0.38550  0.53593  0.40821  1.0000
  H   H1        1.0  0.43120  0.56260  0.34300  1.0000
  N   N3        1.0  0.72390  0.68338  0.74482  1.0000
  N   N4        1.0  0.74730  0.77887  0.77763  1.0000
  H   H2        1.0  0.67460  0.84870  0.79830  1.0000
  C   C1        1.0  0.31310  0.41814  0.53093  1.0000
  C   C2        1.0  0.24570  0.52883  0.59190  1.0000
  C   C3        1.0  0.29460  0.60214  0.50985  1.0000
  C   C4        1.0  0.30450  0.30469  0.57460  1.0000
  H   H3        1.0  0.40540  0.24270  0.53240  1.0000
  H   H4        1.0  0.28350  0.30880  0.65770  1.0000
  H   H5        1.0  0.21910  0.28820  0.56240  1.0000
  C   C5        1.0  0.26040  0.73015  0.52110  1.0000
  H   H6        1.0  0.14780  0.77100  0.53860  1.0000
  H   H7        1.0  0.28680  0.75110  0.58400  1.0000
  H   H8        1.0  0.32420  0.75250  0.44810  1.0000
  C   C6        1.0  0.14090  0.56541  0.71824  1.0000
  H   H9        1.0  0.18430  0.61160  0.75180  1.0000
  H   H10       1.0  0.14180  0.49520  0.75980  1.0000
  C   C7        1.0  0.86250  0.59573  0.72045  1.0000
  C   C8        1.0  0.97250  0.63646  0.73740  1.0000
  C   C9        1.0  0.89470  0.75359  0.77457  1.0000
  C   C10       1.0  0.88290  0.47457  0.68520  1.0000
  H   H11       1.0  0.78110  0.46210  0.72070  1.0000
  H   H12       1.0  0.96010  0.41960  0.71120  1.0000
  H   H13       1.0  0.92080  0.46220  0.60040  1.0000
  C   C11       1.0  0.94660  0.84210  0.81230  1.0000
  H   H14       1.0  0.95490  0.89980  0.75620  1.0000
  H   H15       1.0  0.05000  0.80380  0.81650  1.0000
  H   H16       1.0  0.86900  0.88100  0.88900  1.0000
  N   N5        1.0  0.60190  0.57725  0.58163  1.0000
  N   N6        1.0  0.61450  0.46407  0.59179  1.0000
  H   H17       1.0  0.56880  0.43740  0.65700  1.0000
  N   N7        1.0  0.27610  0.31662  0.25518  1.0000
  N   N8        1.0  0.25270  0.22113  0.22237  1.0000
  H   H18       1.0  0.32540  0.15130  0.20170  1.0000
  C   C12       1.0  0.68690  0.58186  0.46907  1.0000
  C   C13       1.0  0.75430  0.47117  0.40810  1.0000
  C   C14       1.0  0.70540  0.39786  0.49015  1.0000
  C   C15       1.0  0.69550  0.69531  0.42540  1.0000
  H   H19       1.0  0.59460  0.75730  0.46760  1.0000
  H   H20       1.0  0.71650  0.69120  0.34230  1.0000
  H   H21       1.0  0.78090  0.71180  0.43760  1.0000
  C   C16       1.0  0.73960  0.26985  0.47890  1.0000
  H   H22       1.0  0.85220  0.22900  0.46140  1.0000
  H   H23       1.0  0.71320  0.24890  0.41600  1.0000
  H   H24       1.0  0.67580  0.24750  0.55190  1.0000
  C   C17       1.0  0.85910  0.43459  0.28176  1.0000
  H   H25       1.0  0.81570  0.38840  0.24820  1.0000
  H   H26       1.0  0.85820  0.50480  0.24020  1.0000
  C   C18       1.0  0.13750  0.40427  0.27955  1.0000
  C   C19       1.0  0.02750  0.36354  0.26260  1.0000
  C   C20       1.0  0.10530  0.24641  0.22543  1.0000
  C   C21       1.0  0.11710  0.52543  0.31480  1.0000
  H   H27       1.0  0.21890  0.53790  0.27930  1.0000
  H   H28       1.0  0.03990  0.58040  0.28880  1.0000
  H   H29       1.0  0.07920  0.53780  0.39960  1.0000
  C   C22       1.0  0.05340  0.15790  0.18770  1.0000
  H   H30       1.0  0.04510  0.10020  0.24380  1.0000
  H   H31       1.0  0.95000  0.19620  0.18350  1.0000
  H   H32       1.0  0.13100  0.11900  0.11100  1.0000
  O   O1        1.0  0.42147  0.83660  0.68110  1.0000
  O   O2        1.0  0.40135  0.92397  0.84150  1.0000
  O   O3        1.0  0.42828  0.10568  0.93029  1.0000
  H   H33       1.0  0.40740  0.05150  0.90750  1.0000
  O   O4        1.0  0.65280  0.03197  0.77548  1.0000
  C   C23       1.0  0.38440  0.92710  0.74780  1.0000
  C   C24       1.0  0.31490  0.04304  0.70680  1.0000
  H   H34       1.0  0.35000  0.10200  0.73080  1.0000
  H   H35       1.0  0.35520  0.03460  0.62090  1.0000
  C   C25       1.0  0.13480  0.08471  0.75660  1.0000
  C   C26       1.0  0.04870  0.09279  0.87520  1.0000
  H   H36       1.0  0.10300  0.07230  0.92600  1.0000
  C   C27       1.0  0.88410  0.13040  0.92080  1.0000
  H   H37       1.0  0.82760  0.13530  0.00230  1.0000
  C   C28       1.0  0.80160  0.16078  0.84870  1.0000
  C   C29       1.0  0.88840  0.15430  0.73000  1.0000
  H   H38       1.0  0.83440  0.17600  0.67910  1.0000
  C   C30       1.0  0.05180  0.11680  0.68500  1.0000
  H   H39       1.0  0.10830  0.11300  0.60370  1.0000
  C   C31       1.0  0.62330  0.19322  0.89780  1.0000
  H   H40       1.0  0.58250  0.20350  0.98360  1.0000
  H   H41       1.0  0.57640  0.26830  0.87150  1.0000
  C   C32       1.0  0.57260  0.10187  0.86050  1.0000
  O   O5        1.0  0.57853  0.16340  0.31890  1.0000
  O   O6        1.0  0.59865  0.07603  0.15850  1.0000
  O   O7        1.0  0.57172  0.89432  0.06971  1.0000
  H   H42       1.0  0.59260  0.94850  0.09250  1.0000
  O   O8        1.0  0.34720  0.96803  0.22452  1.0000
  C   C33       1.0  0.61560  0.07290  0.25220  1.0000
  C   C34       1.0  0.68510  0.95696  0.29320  1.0000
  H   H43       1.0  0.65000  0.89800  0.26920  1.0000
  H   H44       1.0  0.64480  0.96540  0.37910  1.0000
  C   C35       1.0  0.86520  0.91529  0.24340  1.0000
  C   C36       1.0  0.95130  0.90721  0.12480  1.0000
  H   H45       1.0  0.89700  0.92770  0.07400  1.0000
  C   C37       1.0  0.11590  0.86960  0.07920  1.0000
  H   H46       1.0  0.17240  0.86470  0.99770  1.0000
  C   C38       1.0  0.19840  0.83922  0.15130  1.0000
  C   C39       1.0  0.11160  0.84570  0.27000  1.0000
  H   H47       1.0  0.16560  0.82400  0.32090  1.0000
  C   C40       1.0  0.94820  0.88320  0.31500  1.0000
  H   H48       1.0  0.89170  0.88700  0.39630  1.0000
  C   C41       1.0  0.37670  0.80678  0.10220  1.0000
  H   H49       1.0  0.41750  0.79650  0.01640  1.0000
  H   H50       1.0  0.42360  0.73170  0.12850  1.0000
  C   C42       1.0  0.42740  0.89813  0.13950  1.0000
  C   C43       1.0  0.86460  0.59553  0.02150  1.0000
  H   H51       1.0  0.77200  0.66170  0.03650  1.0000
  C   C44       1.0  0.00210  0.39104  0.97231  1.0000
  H   H52       1.0  0.00440  0.31580  0.95330  1.0000
  O   O9        1.0  0.38388  0.64450  0.86327  1.0000
  O   O10       1.0  0.47460  0.45204  0.81860  1.0000
  C   C45       1.0  0.39030  0.54138  0.88710  1.0000
  C   C46       1.0  0.28240  0.52950  0.00879  1.0000
  H   H53       1.0  0.33960  0.46180  0.03940  1.0000
  H   H54       1.0  0.25160  0.60000  0.06100  1.0000
  C   C47       1.0  0.13500  0.51339  0.00633  1.0000
  C   C48       1.0  0.13540  0.40447  0.97850  1.0000
  H   H55       1.0  0.22800  0.33830  0.96350  1.0000
  C   C49       1.0  0.99790  0.60896  0.02769  1.0000
  H   H56       1.0  0.99560  0.68420  0.04670  1.0000
  O   O11       1.0  0.61612  0.35550  0.13673  1.0000
  O   O12       1.0  0.52540  0.54796  0.18140  1.0000
  C   C50       1.0  0.60970  0.45862  0.11290  1.0000
  C   C51       1.0  0.71760  0.47050  0.99121  1.0000
  H   H57       1.0  0.66040  0.53820  0.96060  1.0000
  H   H58       1.0  0.74840  0.40000  0.93900  1.0000
  C   C52       1.0  0.86500  0.48661  0.99367  1.0000
  Zn  Zn1       1.0  0.52628  0.68663  0.72504  1.0000
  Zn  Zn2       1.0  0.47372  0.31337  0.27496  1.0000
