data_image0
_chemical_formula_structural       N2HN2HC7H2CH3CH3CH3CH3N2HN2HC7H2CH3CH3CH3CH3CH3CH3CH3CH3N2HN2HC7H2N2HN2HC7H2CH3CH3CH3CH3N2HN2HC7H2CH3CH3CH3CH3N2HN2HC7H2CH3CH3CH3CH3N2HN2HC7H2CH3CH3CH3CH3NHN2HC7H2CH3CH3CH3CH3NO4C2H2C2HCHC2HCHCH2CO4C2H2C2HCHC2HCHCH2C3H2C2HCHC2HCHCH2CO8C2H2C2HCHC2HCHCH2C3HCHC2HCHCH2CO4C2H2O4C2H2C2HCHC2HCHCH2CO4C2H2C2HCHC2HCHCH2C3H2C2HCHC2HCHCH2CO4Zn8
_chemical_formula_sum              "N32 H192 C168 O32 Zn8"
_cell_length_a       27.6934
_cell_length_b       11.4193
_cell_length_c       18.3753
_cell_angle_alpha    90
_cell_angle_beta     115.368
_cell_angle_gamma    90

_space_group_name_H-M_alt    "P 1"
_space_group_IT_number       1

loop_
  _space_group_symop_operation_xyz
  'x, y, z'

loop_
  _atom_site_type_symbol
  _atom_site_label
  _atom_site_symmetry_multiplicity
  _atom_site_fract_x
  _atom_site_fract_y
  _atom_site_fract_z
  _atom_site_occupancy
  N   N1        1.0  0.93904  0.59410  0.04100  1.0000
  N   N2        1.0  0.95077  0.70030  0.01950  1.0000
  H   H1        1.0  0.92599  0.74501  0.98675  1.0000
  N   N3        1.0  0.12660  0.55020  0.35330  1.0000
  N   N4        1.0  0.14714  0.46390  0.32550  1.0000
  H   H2        1.0  0.16572  0.40692  0.35465  1.0000
  C   C1        1.0  0.98775  0.55350  0.08810  1.0000
  C   C2        1.0  0.02645  0.63770  0.09490  1.0000
  C   C3        1.0  0.99842  0.73100  0.04860  1.0000
  C   C4        1.0  0.10225  0.62390  0.29120  1.0000
  C   C5        1.0  0.10679  0.57980  0.22300  1.0000
  C   C6        1.0  0.13517  0.47780  0.24700  1.0000
  C   C7        1.0  0.08622  0.63400  0.14030  1.0000
  H   H3        1.0  0.09983  0.71331  0.14576  1.0000
  H   H4        1.0  0.10054  0.59030  0.10872  1.0000
  C   C8        1.0  0.99410  0.43620  0.12390  1.0000
  H   H5        1.0  0.03139  0.42069  0.15584  1.0000
  H   H6        1.0  0.97545  0.43243  0.15743  1.0000
  H   H7        1.0  0.97972  0.37882  0.08185  1.0000
  C   C9        1.0  0.01750  0.84580  0.02980  1.0000
  H   H8        1.0  0.05563  0.85077  0.05893  1.0000
  H   H9        1.0  0.00770  0.85035  0.97304  1.0000
  H   H10       1.0  0.00122  0.90932  0.04539  1.0000
  C   C10       1.0  0.07770  0.73580  0.30070  1.0000
  H   H11       1.0  0.06238  0.77634  0.25010  1.0000
  H   H12       1.0  0.05036  0.71915  0.31815  1.0000
  H   H13       1.0  0.10472  0.78402  0.34014  1.0000
  C   C11       1.0  0.15310  0.39280  0.20190  1.0000
  H   H14       1.0  0.14060  0.41794  0.14696  1.0000
  H   H15       1.0  0.19141  0.38898  0.22632  1.0000
  H   H16       1.0  0.13877  0.31670  0.20335  1.0000
  N   N5        1.0  0.43904  0.09410  0.04100  1.0000
  N   N6        1.0  0.45077  0.20030  0.01950  1.0000
  H   H17       1.0  0.42599  0.24501  0.98675  1.0000
  N   N7        1.0  0.62660  0.05020  0.35330  1.0000
  N   N8        1.0  0.64714  0.96390  0.32550  1.0000
  H   H18       1.0  0.66572  0.90692  0.35465  1.0000
  C   C12       1.0  0.48775  0.05350  0.08810  1.0000
  C   C13       1.0  0.52645  0.13770  0.09490  1.0000
  C   C14       1.0  0.49842  0.23100  0.04860  1.0000
  C   C15       1.0  0.60225  0.12390  0.29120  1.0000
  C   C16       1.0  0.60679  0.07980  0.22300  1.0000
  C   C17       1.0  0.63517  0.97780  0.24700  1.0000
  C   C18       1.0  0.58622  0.13400  0.14030  1.0000
  H   H19       1.0  0.59983  0.21331  0.14576  1.0000
  H   H20       1.0  0.60054  0.09030  0.10872  1.0000
  C   C19       1.0  0.49410  0.93620  0.12390  1.0000
  H   H21       1.0  0.53139  0.92069  0.15583  1.0000
  H   H22       1.0  0.47545  0.93243  0.15743  1.0000
  H   H23       1.0  0.47972  0.87882  0.08185  1.0000
  C   C20       1.0  0.51750  0.34580  0.02980  1.0000
  H   H24       1.0  0.55563  0.35077  0.05893  1.0000
  H   H25       1.0  0.50770  0.35035  0.97303  1.0000
  H   H26       1.0  0.50122  0.40932  0.04539  1.0000
  C   C21       1.0  0.57770  0.23580  0.30070  1.0000
  H   H27       1.0  0.56238  0.27634  0.25010  1.0000
  H   H28       1.0  0.55036  0.21915  0.31815  1.0000
  H   H29       1.0  0.60472  0.28402  0.34014  1.0000
  C   C22       1.0  0.65310  0.89280  0.20190  1.0000
  H   H30       1.0  0.64060  0.91794  0.14696  1.0000
  H   H31       1.0  0.69141  0.88898  0.22631  1.0000
  H   H32       1.0  0.63877  0.81670  0.20335  1.0000
  C   C23       1.0  0.00590  0.43620  0.37610  1.0000
  H   H33       1.0  0.96861  0.42069  0.34416  1.0000
  H   H34       1.0  0.02455  0.43243  0.34257  1.0000
  H   H35       1.0  0.02028  0.37882  0.41815  1.0000
  C   C24       1.0  0.98250  0.84580  0.47020  1.0000
  H   H36       1.0  0.94437  0.85077  0.44107  1.0000
  H   H37       1.0  0.99230  0.85035  0.52697  1.0000
  H   H38       1.0  0.99878  0.90932  0.45461  1.0000
  C   C25       1.0  0.92230  0.73580  0.19930  1.0000
  H   H39       1.0  0.93762  0.77634  0.24990  1.0000
  H   H40       1.0  0.94964  0.71915  0.18185  1.0000
  H   H41       1.0  0.89527  0.78402  0.15986  1.0000
  C   C26       1.0  0.84690  0.39280  0.29810  1.0000
  H   H42       1.0  0.85940  0.41794  0.35304  1.0000
  H   H43       1.0  0.80859  0.38898  0.27368  1.0000
  H   H44       1.0  0.86123  0.31670  0.29665  1.0000
  N   N9        1.0  0.06096  0.59410  0.45900  1.0000
  N   N10       1.0  0.04923  0.70030  0.48050  1.0000
  H   H45       1.0  0.07401  0.74501  0.51325  1.0000
  N   N11       1.0  0.87340  0.55020  0.14670  1.0000
  N   N12       1.0  0.85286  0.46390  0.17450  1.0000
  H   H46       1.0  0.83428  0.40692  0.14535  1.0000
  C   C27       1.0  0.01225  0.55350  0.41190  1.0000
  C   C28       1.0  0.97355  0.63770  0.40510  1.0000
  C   C29       1.0  0.00158  0.73100  0.45140  1.0000
  C   C30       1.0  0.89775  0.62390  0.20880  1.0000
  C   C31       1.0  0.89321  0.57980  0.27700  1.0000
  C   C32       1.0  0.86483  0.47780  0.25300  1.0000
  C   C33       1.0  0.91378  0.63400  0.35970  1.0000
  H   H47       1.0  0.90017  0.71331  0.35424  1.0000
  H   H48       1.0  0.89946  0.59030  0.39127  1.0000
  N   N13       1.0  0.56096  0.09410  0.45900  1.0000
  N   N14       1.0  0.54923  0.20030  0.48050  1.0000
  H   H49       1.0  0.57401  0.24501  0.51325  1.0000
  N   N15       1.0  0.37340  0.05020  0.14670  1.0000
  N   N16       1.0  0.35286  0.96390  0.17450  1.0000
  H   H50       1.0  0.33428  0.90692  0.14535  1.0000
  C   C34       1.0  0.51225  0.05350  0.41190  1.0000
  C   C35       1.0  0.47355  0.13770  0.40510  1.0000
  C   C36       1.0  0.50158  0.23100  0.45140  1.0000
  C   C37       1.0  0.39775  0.12390  0.20880  1.0000
  C   C38       1.0  0.39321  0.07980  0.27700  1.0000
  C   C39       1.0  0.36483  0.97780  0.25300  1.0000
  C   C40       1.0  0.41378  0.13400  0.35970  1.0000
  H   H51       1.0  0.40017  0.21331  0.35424  1.0000
  H   H52       1.0  0.39946  0.09030  0.39127  1.0000
  C   C41       1.0  0.50590  0.93620  0.37610  1.0000
  H   H53       1.0  0.46861  0.92069  0.34416  1.0000
  H   H54       1.0  0.52455  0.93243  0.34257  1.0000
  H   H55       1.0  0.52028  0.87882  0.41815  1.0000
  C   C42       1.0  0.48250  0.34580  0.47020  1.0000
  H   H56       1.0  0.44437  0.35077  0.44107  1.0000
  H   H57       1.0  0.49230  0.35035  0.52697  1.0000
  H   H58       1.0  0.49878  0.40932  0.45461  1.0000
  C   C43       1.0  0.42230  0.23580  0.19930  1.0000
  H   H59       1.0  0.43762  0.27634  0.24990  1.0000
  H   H60       1.0  0.44964  0.21915  0.18185  1.0000
  H   H61       1.0  0.39527  0.28402  0.15986  1.0000
  C   C44       1.0  0.34690  0.89280  0.29810  1.0000
  H   H62       1.0  0.35940  0.91794  0.35304  1.0000
  H   H63       1.0  0.30859  0.88898  0.27368  1.0000
  H   H64       1.0  0.36123  0.81670  0.29665  1.0000
  N   N17       1.0  0.06096  0.40590  0.95900  1.0000
  N   N18       1.0  0.04923  0.29970  0.98050  1.0000
  H   H65       1.0  0.07401  0.25499  0.01325  1.0000
  N   N19       1.0  0.87340  0.44980  0.64670  1.0000
  N   N20       1.0  0.85286  0.53610  0.67450  1.0000
  H   H66       1.0  0.83428  0.59308  0.64535  1.0000
  C   C45       1.0  0.01225  0.44650  0.91190  1.0000
  C   C46       1.0  0.97355  0.36230  0.90510  1.0000
  C   C47       1.0  0.00158  0.26900  0.95140  1.0000
  C   C48       1.0  0.89775  0.37610  0.70880  1.0000
  C   C49       1.0  0.89321  0.42020  0.77700  1.0000
  C   C50       1.0  0.86483  0.52220  0.75300  1.0000
  C   C51       1.0  0.91378  0.36600  0.85970  1.0000
  H   H67       1.0  0.90017  0.28669  0.85424  1.0000
  H   H68       1.0  0.89946  0.40970  0.89127  1.0000
  C   C52       1.0  0.00590  0.56380  0.87610  1.0000
  H   H69       1.0  0.96861  0.57931  0.84416  1.0000
  H   H70       1.0  0.02455  0.56757  0.84257  1.0000
  H   H71       1.0  0.02028  0.62118  0.91815  1.0000
  C   C53       1.0  0.98250  0.15420  0.97020  1.0000
  H   H72       1.0  0.94437  0.14923  0.94107  1.0000
  H   H73       1.0  0.99230  0.14965  0.02696  1.0000
  H   H74       1.0  0.99878  0.09068  0.95461  1.0000
  C   C54       1.0  0.92230  0.26420  0.69930  1.0000
  H   H75       1.0  0.93762  0.22366  0.74990  1.0000
  H   H76       1.0  0.94964  0.28085  0.68185  1.0000
  H   H77       1.0  0.89527  0.21598  0.65986  1.0000
  C   C55       1.0  0.84690  0.60720  0.79810  1.0000
  H   H78       1.0  0.85940  0.58206  0.85304  1.0000
  H   H79       1.0  0.80859  0.61102  0.77368  1.0000
  H   H80       1.0  0.86123  0.68330  0.79665  1.0000
  N   N21       1.0  0.56096  0.90590  0.95900  1.0000
  N   N22       1.0  0.54923  0.79970  0.98050  1.0000
  H   H81       1.0  0.57401  0.75499  0.01325  1.0000
  N   N23       1.0  0.37340  0.94980  0.64670  1.0000
  N   N24       1.0  0.35286  0.03610  0.67450  1.0000
  H   H82       1.0  0.33428  0.09308  0.64535  1.0000
  C   C56       1.0  0.51225  0.94650  0.91190  1.0000
  C   C57       1.0  0.47355  0.86230  0.90510  1.0000
  C   C58       1.0  0.50158  0.76900  0.95140  1.0000
  C   C59       1.0  0.39775  0.87610  0.70880  1.0000
  C   C60       1.0  0.39321  0.92020  0.77700  1.0000
  C   C61       1.0  0.36483  0.02220  0.75300  1.0000
  C   C62       1.0  0.41378  0.86600  0.85970  1.0000
  H   H83       1.0  0.40017  0.78669  0.85424  1.0000
  H   H84       1.0  0.39946  0.90970  0.89128  1.0000
  C   C63       1.0  0.50590  0.06380  0.87610  1.0000
  H   H85       1.0  0.46861  0.07931  0.84416  1.0000
  H   H86       1.0  0.52455  0.06757  0.84257  1.0000
  H   H87       1.0  0.52028  0.12118  0.91815  1.0000
  C   C64       1.0  0.48250  0.65420  0.97020  1.0000
  H   H88       1.0  0.44437  0.64923  0.94107  1.0000
  H   H89       1.0  0.49230  0.64965  0.02697  1.0000
  H   H90       1.0  0.49878  0.59068  0.95461  1.0000
  C   C65       1.0  0.42230  0.76420  0.69930  1.0000
  H   H91       1.0  0.43762  0.72366  0.74990  1.0000
  H   H92       1.0  0.44964  0.78085  0.68185  1.0000
  H   H93       1.0  0.39527  0.71598  0.65986  1.0000
  C   C66       1.0  0.34690  0.10720  0.79810  1.0000
  H   H94       1.0  0.35940  0.08206  0.85304  1.0000
  H   H95       1.0  0.30859  0.11102  0.77369  1.0000
  H   H96       1.0  0.36123  0.18330  0.79665  1.0000
  N   N25       1.0  0.93904  0.40590  0.54100  1.0000
  N   N26       1.0  0.95077  0.29970  0.51950  1.0000
  H   H97       1.0  0.92599  0.25499  0.48675  1.0000
  N   N27       1.0  0.12660  0.44980  0.85330  1.0000
  N   N28       1.0  0.14714  0.53610  0.82550  1.0000
  H   H98       1.0  0.16572  0.59308  0.85465  1.0000
  C   C67       1.0  0.98775  0.44650  0.58810  1.0000
  C   C68       1.0  0.02645  0.36230  0.59490  1.0000
  C   C69       1.0  0.99842  0.26900  0.54860  1.0000
  C   C70       1.0  0.10225  0.37610  0.79120  1.0000
  C   C71       1.0  0.10679  0.42020  0.72300  1.0000
  C   C72       1.0  0.13517  0.52220  0.74700  1.0000
  C   C73       1.0  0.08622  0.36600  0.64030  1.0000
  H   H99       1.0  0.09983  0.28669  0.64576  1.0000
  H   H100      1.0  0.10054  0.40970  0.60872  1.0000
  C   C74       1.0  0.99410  0.56380  0.62390  1.0000
  H   H101      1.0  0.03139  0.57931  0.65584  1.0000
  H   H102      1.0  0.97545  0.56757  0.65743  1.0000
  H   H103      1.0  0.97972  0.62118  0.58185  1.0000
  C   C75       1.0  0.01750  0.15420  0.52980  1.0000
  H   H104      1.0  0.05563  0.14923  0.55893  1.0000
  H   H105      1.0  0.00770  0.14965  0.47304  1.0000
  H   H106      1.0  0.00122  0.09068  0.54539  1.0000
  C   C76       1.0  0.07770  0.26420  0.80070  1.0000
  H   H107      1.0  0.06238  0.22366  0.75010  1.0000
  H   H108      1.0  0.05036  0.28085  0.81815  1.0000
  H   H109      1.0  0.10472  0.21598  0.84014  1.0000
  C   C77       1.0  0.15310  0.60720  0.70190  1.0000
  H   H110      1.0  0.14060  0.58206  0.64696  1.0000
  H   H111      1.0  0.19141  0.61102  0.72632  1.0000
  H   H112      1.0  0.13877  0.68330  0.70335  1.0000
  N   N29       1.0  0.45077  0.79970  0.51950  1.0000
  H   H113      1.0  0.42599  0.75499  0.48675  1.0000
  N   N30       1.0  0.62660  0.94980  0.85330  1.0000
  N   N31       1.0  0.64714  0.03610  0.82550  1.0000
  H   H114      1.0  0.66572  0.09308  0.85465  1.0000
  C   C78       1.0  0.48775  0.94650  0.58810  1.0000
  C   C79       1.0  0.52645  0.86230  0.59490  1.0000
  C   C80       1.0  0.49842  0.76900  0.54860  1.0000
  C   C81       1.0  0.60225  0.87610  0.79120  1.0000
  C   C82       1.0  0.60679  0.92020  0.72300  1.0000
  C   C83       1.0  0.63517  0.02220  0.74700  1.0000
  C   C84       1.0  0.58622  0.86600  0.64030  1.0000
  H   H115      1.0  0.59983  0.78669  0.64576  1.0000
  H   H116      1.0  0.60054  0.90970  0.60872  1.0000
  C   C85       1.0  0.49410  0.06380  0.62390  1.0000
  H   H117      1.0  0.53139  0.07931  0.65583  1.0000
  H   H118      1.0  0.47545  0.06757  0.65743  1.0000
  H   H119      1.0  0.47972  0.12118  0.58185  1.0000
  C   C86       1.0  0.51750  0.65420  0.52980  1.0000
  H   H120      1.0  0.55563  0.64923  0.55893  1.0000
  H   H121      1.0  0.50770  0.64965  0.47303  1.0000
  H   H122      1.0  0.50122  0.59068  0.54539  1.0000
  C   C87       1.0  0.57770  0.76420  0.80070  1.0000
  H   H123      1.0  0.56238  0.72366  0.75010  1.0000
  H   H124      1.0  0.55036  0.78085  0.81815  1.0000
  H   H125      1.0  0.60472  0.71598  0.84014  1.0000
  C   C88       1.0  0.65310  0.10720  0.70190  1.0000
  H   H126      1.0  0.64060  0.08206  0.64696  1.0000
  H   H127      1.0  0.69141  0.11102  0.72631  1.0000
  H   H128      1.0  0.63877  0.18330  0.70335  1.0000
  N   N32       1.0  0.43904  0.90590  0.54100  1.0000
  O   O1        1.0  0.17731  0.67360  0.53465  1.0000
  O   O2        1.0  0.24243  0.55830  0.53890  1.0000
  O   O3        1.0  0.34891  0.89190  0.98079  1.0000
  O   O4        1.0  0.33041  0.78890  0.06920  1.0000
  C   C89       1.0  0.22725  0.65150  0.55660  1.0000
  C   C90       1.0  0.26632  0.74450  0.60540  1.0000
  H   H129      1.0  0.25237  0.82101  0.58348  1.0000
  H   H130      1.0  0.29985  0.73360  0.60139  1.0000
  C   C91       1.0  0.27634  0.73980  0.69330  1.0000
  C   C92       1.0  0.25975  0.83000  0.72870  1.0000
  H   H131      1.0  0.24268  0.89549  0.69854  1.0000
  C   C93       1.0  0.26882  0.82190  0.80940  1.0000
  H   H132      1.0  0.25788  0.88227  0.83287  1.0000
  C   C94       1.0  0.29365  0.72580  0.85420  1.0000
  C   C95       1.0  0.31020  0.63730  0.81870  1.0000
  H   H133      1.0  0.32700  0.57144  0.84862  1.0000
  C   C96       1.0  0.30226  0.64530  0.74060  1.0000
  H   H134      1.0  0.31458  0.58562  0.71848  1.0000
  C   C97       1.0  0.30070  0.71030  0.94000  1.0000
  H   H135      1.0  0.26549  0.70039  0.93841  1.0000
  H   H136      1.0  0.31996  0.63760  0.96015  1.0000
  C   C98       1.0  0.32870  0.80340  0.00030  1.0000
  O   O5        1.0  0.67731  0.17360  0.53465  1.0000
  O   O6        1.0  0.74243  0.05830  0.53890  1.0000
  O   O7        1.0  0.84891  0.39190  0.98079  1.0000
  O   O8        1.0  0.83041  0.28890  0.06920  1.0000
  C   C99       1.0  0.72725  0.15150  0.55660  1.0000
  C   C100      1.0  0.76632  0.24450  0.60540  1.0000
  H   H137      1.0  0.75237  0.32101  0.58348  1.0000
  H   H138      1.0  0.79985  0.23360  0.60139  1.0000
  C   C101      1.0  0.77634  0.23980  0.69330  1.0000
  C   C102      1.0  0.75975  0.33000  0.72870  1.0000
  H   H139      1.0  0.74268  0.39549  0.69854  1.0000
  C   C103      1.0  0.76882  0.32190  0.80940  1.0000
  H   H140      1.0  0.75788  0.38227  0.83287  1.0000
  C   C104      1.0  0.79365  0.22580  0.85420  1.0000
  C   C105      1.0  0.81020  0.13730  0.81870  1.0000
  H   H141      1.0  0.82700  0.07144  0.84862  1.0000
  C   C106      1.0  0.80226  0.14530  0.74060  1.0000
  H   H142      1.0  0.81458  0.08562  0.71848  1.0000
  C   C107      1.0  0.80070  0.21030  0.94000  1.0000
  H   H143      1.0  0.76549  0.20039  0.93841  1.0000
  H   H144      1.0  0.81996  0.13760  0.96015  1.0000
  C   C108      1.0  0.82870  0.30340  0.00030  1.0000
  C   C109      1.0  0.77275  0.65150  0.94340  1.0000
  C   C110      1.0  0.73368  0.74450  0.89460  1.0000
  H   H145      1.0  0.74763  0.82101  0.91652  1.0000
  H   H146      1.0  0.70015  0.73360  0.89861  1.0000
  C   C111      1.0  0.72366  0.73980  0.80670  1.0000
  C   C112      1.0  0.74025  0.83000  0.77130  1.0000
  H   H147      1.0  0.75732  0.89549  0.80146  1.0000
  C   C113      1.0  0.73118  0.82190  0.69060  1.0000
  H   H148      1.0  0.74212  0.88227  0.66713  1.0000
  C   C114      1.0  0.70635  0.72580  0.64580  1.0000
  C   C115      1.0  0.68980  0.63730  0.68130  1.0000
  H   H149      1.0  0.67300  0.57144  0.65138  1.0000
  C   C116      1.0  0.69774  0.64530  0.75940  1.0000
  H   H150      1.0  0.68542  0.58562  0.78152  1.0000
  C   C117      1.0  0.69930  0.71030  0.56000  1.0000
  H   H151      1.0  0.73451  0.70039  0.56159  1.0000
  H   H152      1.0  0.68004  0.63760  0.53985  1.0000
  C   C118      1.0  0.67130  0.80340  0.49970  1.0000
  O   O9        1.0  0.82269  0.67360  0.96535  1.0000
  O   O10       1.0  0.75757  0.55830  0.96110  1.0000
  O   O11       1.0  0.65109  0.89190  0.51921  1.0000
  O   O12       1.0  0.66959  0.78890  0.43080  1.0000
  O   O13       1.0  0.32269  0.17360  0.96535  1.0000
  O   O14       1.0  0.25757  0.05830  0.96110  1.0000
  O   O15       1.0  0.15109  0.39190  0.51921  1.0000
  O   O16       1.0  0.16959  0.28890  0.43080  1.0000
  C   C119      1.0  0.27275  0.15150  0.94340  1.0000
  C   C120      1.0  0.23368  0.24450  0.89460  1.0000
  H   H153      1.0  0.24763  0.32101  0.91652  1.0000
  H   H154      1.0  0.20015  0.23360  0.89861  1.0000
  C   C121      1.0  0.22366  0.23980  0.80670  1.0000
  C   C122      1.0  0.24025  0.33000  0.77130  1.0000
  H   H155      1.0  0.25732  0.39549  0.80146  1.0000
  C   C123      1.0  0.23118  0.32190  0.69060  1.0000
  H   H156      1.0  0.24212  0.38227  0.66713  1.0000
  C   C124      1.0  0.20635  0.22580  0.64580  1.0000
  C   C125      1.0  0.18980  0.13730  0.68130  1.0000
  H   H157      1.0  0.17300  0.07144  0.65138  1.0000
  C   C126      1.0  0.19774  0.14530  0.75940  1.0000
  H   H158      1.0  0.18542  0.08562  0.78152  1.0000
  C   C127      1.0  0.19930  0.21030  0.56000  1.0000
  H   H159      1.0  0.23451  0.20039  0.56159  1.0000
  H   H160      1.0  0.18004  0.13760  0.53985  1.0000
  C   C128      1.0  0.17130  0.30340  0.49970  1.0000
  C   C129      1.0  0.72366  0.26020  0.30670  1.0000
  C   C130      1.0  0.74025  0.17000  0.27130  1.0000
  H   H161      1.0  0.75732  0.10451  0.30146  1.0000
  C   C131      1.0  0.73118  0.17810  0.19060  1.0000
  H   H162      1.0  0.74212  0.11773  0.16713  1.0000
  C   C132      1.0  0.70635  0.27420  0.14580  1.0000
  C   C133      1.0  0.68980  0.36270  0.18130  1.0000
  H   H163      1.0  0.67300  0.42856  0.15138  1.0000
  C   C134      1.0  0.69774  0.35470  0.25940  1.0000
  H   H164      1.0  0.68542  0.41438  0.28152  1.0000
  C   C135      1.0  0.69930  0.28970  0.06000  1.0000
  H   H165      1.0  0.73451  0.29961  0.06159  1.0000
  H   H166      1.0  0.68004  0.36240  0.03985  1.0000
  C   C136      1.0  0.67130  0.19660  0.99970  1.0000
  O   O17       1.0  0.82269  0.32640  0.46535  1.0000
  O   O18       1.0  0.75757  0.44170  0.46110  1.0000
  O   O19       1.0  0.65109  0.10810  0.01921  1.0000
  O   O20       1.0  0.66959  0.21110  0.93080  1.0000
  C   C137      1.0  0.77275  0.34850  0.44340  1.0000
  C   C138      1.0  0.73368  0.25550  0.39460  1.0000
  H   H167      1.0  0.74763  0.17899  0.41652  1.0000
  H   H168      1.0  0.70015  0.26640  0.39861  1.0000
  O   O21       1.0  0.32269  0.82640  0.46535  1.0000
  O   O22       1.0  0.25757  0.94170  0.46110  1.0000
  O   O23       1.0  0.15109  0.60810  0.01921  1.0000
  O   O24       1.0  0.16959  0.71110  0.93080  1.0000
  C   C139      1.0  0.27275  0.84850  0.44340  1.0000
  C   C140      1.0  0.23368  0.75550  0.39460  1.0000
  H   H169      1.0  0.24763  0.67899  0.41652  1.0000
  H   H170      1.0  0.20015  0.76640  0.39861  1.0000
  C   C141      1.0  0.22366  0.76020  0.30670  1.0000
  C   C142      1.0  0.24025  0.67000  0.27130  1.0000
  H   H171      1.0  0.25732  0.60451  0.30146  1.0000
  C   C143      1.0  0.23118  0.67810  0.19060  1.0000
  H   H172      1.0  0.24212  0.61773  0.16713  1.0000
  C   C144      1.0  0.20635  0.77420  0.14580  1.0000
  C   C145      1.0  0.18980  0.86270  0.18130  1.0000
  H   H173      1.0  0.17300  0.92856  0.15138  1.0000
  C   C146      1.0  0.19774  0.85470  0.25940  1.0000
  H   H174      1.0  0.18542  0.91438  0.28152  1.0000
  C   C147      1.0  0.19930  0.78970  0.06000  1.0000
  H   H175      1.0  0.23451  0.79961  0.06159  1.0000
  H   H176      1.0  0.18004  0.86240  0.03985  1.0000
  C   C148      1.0  0.17130  0.69660  0.99970  1.0000
  O   O25       1.0  0.17731  0.32640  0.03465  1.0000
  O   O26       1.0  0.24243  0.44170  0.03890  1.0000
  O   O27       1.0  0.34891  0.10810  0.48079  1.0000
  O   O28       1.0  0.33041  0.21110  0.56920  1.0000
  C   C149      1.0  0.22725  0.34850  0.05660  1.0000
  C   C150      1.0  0.26632  0.25550  0.10540  1.0000
  H   H177      1.0  0.25237  0.17899  0.08348  1.0000
  H   H178      1.0  0.29985  0.26640  0.10139  1.0000
  C   C151      1.0  0.27634  0.26020  0.19330  1.0000
  C   C152      1.0  0.25975  0.17000  0.22870  1.0000
  H   H179      1.0  0.24268  0.10451  0.19854  1.0000
  C   C153      1.0  0.26882  0.17810  0.30940  1.0000
  H   H180      1.0  0.25788  0.11773  0.33287  1.0000
  C   C154      1.0  0.29365  0.27420  0.35420  1.0000
  C   C155      1.0  0.31020  0.36270  0.31870  1.0000
  H   H181      1.0  0.32700  0.42856  0.34862  1.0000
  C   C156      1.0  0.30226  0.35470  0.24060  1.0000
  H   H182      1.0  0.31458  0.41438  0.21848  1.0000
  C   C157      1.0  0.30070  0.28970  0.44000  1.0000
  H   H183      1.0  0.26549  0.29961  0.43841  1.0000
  H   H184      1.0  0.31996  0.36240  0.46015  1.0000
  C   C158      1.0  0.32870  0.19660  0.50030  1.0000
  C   C159      1.0  0.72725  0.84850  0.05660  1.0000
  C   C160      1.0  0.76632  0.75550  0.10540  1.0000
  H   H185      1.0  0.75237  0.67899  0.08348  1.0000
  H   H186      1.0  0.79985  0.76640  0.10139  1.0000
  C   C161      1.0  0.77634  0.76020  0.19330  1.0000
  C   C162      1.0  0.75975  0.67000  0.22870  1.0000
  H   H187      1.0  0.74268  0.60451  0.19854  1.0000
  C   C163      1.0  0.76882  0.67810  0.30940  1.0000
  H   H188      1.0  0.75788  0.61773  0.33287  1.0000
  C   C164      1.0  0.79365  0.77420  0.35420  1.0000
  C   C165      1.0  0.81020  0.86270  0.31870  1.0000
  H   H189      1.0  0.82700  0.92856  0.34862  1.0000
  C   C166      1.0  0.80226  0.85470  0.24060  1.0000
  H   H190      1.0  0.81458  0.91438  0.21848  1.0000
  C   C167      1.0  0.80070  0.78970  0.44000  1.0000
  H   H191      1.0  0.76549  0.79961  0.43841  1.0000
  H   H192      1.0  0.81996  0.86240  0.46015  1.0000
  C   C168      1.0  0.82870  0.69660  0.50030  1.0000
  O   O29       1.0  0.67731  0.82640  0.03465  1.0000
  O   O30       1.0  0.74243  0.94170  0.03890  1.0000
  O   O31       1.0  0.84891  0.60810  0.48079  1.0000
  O   O32       1.0  0.83041  0.71110  0.56920  1.0000
  Zn  Zn1       1.0  0.13324  0.54479  0.46644  1.0000
  Zn  Zn2       1.0  0.36676  0.04479  0.03356  1.0000
  Zn  Zn3       1.0  0.13324  0.45521  0.96644  1.0000
  Zn  Zn4       1.0  0.86676  0.54479  0.03356  1.0000
  Zn  Zn5       1.0  0.36676  0.95521  0.53356  1.0000
  Zn  Zn6       1.0  0.63324  0.04479  0.46644  1.0000
  Zn  Zn7       1.0  0.86676  0.45521  0.53356  1.0000
  Zn  Zn8       1.0  0.63324  0.95521  0.96644  1.0000
