data_image0
_chemical_formula_structural       CO2CO2CO2CO2CO2CO3CO2COFe4CO2CO2CO2CO2CO2CO3CO2COFe4
_chemical_formula_sum              "C16 O32 Fe8"
_cell_length_a       12.065
_cell_length_b       11.118
_cell_length_c       9.817
_cell_angle_alpha    90
_cell_angle_beta     128.03
_cell_angle_gamma    90

_space_group_name_H-M_alt    "P 1"
_space_group_IT_number       1

loop_
  _space_group_symop_operation_xyz
  'x, y, z'

loop_
  _atom_site_type_symbol
  _atom_site_label
  _atom_site_symmetry_multiplicity
  _atom_site_fract_x
  _atom_site_fract_y
  _atom_site_fract_z
  _atom_site_occupancy
  C   C1        1.0  0.04990  0.33345  0.85100  1.0000
  O   O1        1.0  0.08630  0.43560  0.92380  1.0000
  O   O2        1.0  0.08570  0.23365  0.92370  1.0000
  C   C2        1.0  0.95010  0.33345  0.64900  1.0000
  O   O3        1.0  0.91370  0.43560  0.57620  1.0000
  O   O4        1.0  0.91430  0.23365  0.57630  1.0000
  C   C3        1.0  0.54990  0.08345  0.85100  1.0000
  O   O5        1.0  0.58630  0.18560  0.92380  1.0000
  O   O6        1.0  0.58570  0.48365  0.92370  1.0000
  C   C4        1.0  0.45010  0.08345  0.64900  1.0000
  O   O7        1.0  0.41370  0.18560  0.57620  1.0000
  O   O8        1.0  0.41430  0.48365  0.57630  1.0000
  C   C5        1.0  0.04990  0.16655  0.35100  1.0000
  O   O9        1.0  0.08630  0.06440  0.42380  1.0000
  O   O10       1.0  0.08570  0.26635  0.42370  1.0000
  C   C6        1.0  0.95010  0.16655  0.14900  1.0000
  O   O11       1.0  0.91370  0.06440  0.07620  1.0000
  O   O12       1.0  0.91430  0.26635  0.07630  1.0000
  O   O13       1.0  0.41430  0.01635  0.07630  1.0000
  C   C7        1.0  0.54990  0.41655  0.35100  1.0000
  O   O14       1.0  0.58630  0.31440  0.42380  1.0000
  O   O15       1.0  0.58570  0.01635  0.42370  1.0000
  C   C8        1.0  0.45010  0.41655  0.14900  1.0000
  O   O16       1.0  0.41370  0.31440  0.07620  1.0000
  Fe  Fe1       1.0  0.00000  0.08535  0.75000  1.0000
  Fe  Fe2       1.0  0.50000  0.33535  0.75000  1.0000
  Fe  Fe3       1.0  0.00000  0.41465  0.25000  1.0000
  Fe  Fe4       1.0  0.50000  0.16465  0.25000  1.0000
  C   C9        1.0  0.04990  0.83345  0.85100  1.0000
  O   O17       1.0  0.08630  0.93560  0.92380  1.0000
  O   O18       1.0  0.08570  0.73365  0.92370  1.0000
  C   C10       1.0  0.95010  0.83345  0.64900  1.0000
  O   O19       1.0  0.91370  0.93560  0.57620  1.0000
  O   O20       1.0  0.91430  0.73365  0.57630  1.0000
  C   C11       1.0  0.54990  0.58345  0.85100  1.0000
  O   O21       1.0  0.58630  0.68560  0.92380  1.0000
  O   O22       1.0  0.58570  0.98365  0.92370  1.0000
  C   C12       1.0  0.45010  0.58345  0.64900  1.0000
  O   O23       1.0  0.41370  0.68560  0.57620  1.0000
  O   O24       1.0  0.41430  0.98365  0.57630  1.0000
  C   C13       1.0  0.04990  0.66655  0.35100  1.0000
  O   O25       1.0  0.08630  0.56440  0.42380  1.0000
  O   O26       1.0  0.08570  0.76635  0.42370  1.0000
  C   C14       1.0  0.95010  0.66655  0.14900  1.0000
  O   O27       1.0  0.91370  0.56440  0.07620  1.0000
  O   O28       1.0  0.91430  0.76635  0.07630  1.0000
  O   O29       1.0  0.41430  0.51635  0.07630  1.0000
  C   C15       1.0  0.54990  0.91655  0.35100  1.0000
  O   O30       1.0  0.58630  0.81440  0.42380  1.0000
  O   O31       1.0  0.58570  0.51635  0.42370  1.0000
  C   C16       1.0  0.45010  0.91655  0.14900  1.0000
  O   O32       1.0  0.41370  0.81440  0.07620  1.0000
  Fe  Fe5       1.0  0.00000  0.58535  0.75000  1.0000
  Fe  Fe6       1.0  0.50000  0.83535  0.75000  1.0000
  Fe  Fe7       1.0  0.00000  0.91465  0.25000  1.0000
  Fe  Fe8       1.0  0.50000  0.66465  0.25000  1.0000
