data_image0
_chemical_formula_structural       O4HOC2NC3HC3HCHCHC4HCHC4HCHCHO7HOC2NC3HC3HCHCHC4HCHC4HCHCHO3CHC3HCHCHC4HCHC4HCHCHO7HOC2NC2O4HOC2NC3HC3HCHCHC4HCHC4HCHCHO3Eu4
_chemical_formula_sum              "O32 H40 C84 N4 Eu4"
_cell_length_a       15.1205
_cell_length_b       10.7089
_cell_length_c       15.3715
_cell_angle_alpha    90
_cell_angle_beta     95.057
_cell_angle_gamma    90

_space_group_name_H-M_alt    "P 1"
_space_group_IT_number       1

loop_
  _space_group_symop_operation_xyz
  'x, y, z'

loop_
  _atom_site_type_symbol
  _atom_site_label
  _atom_site_symmetry_multiplicity
  _atom_site_fract_x
  _atom_site_fract_y
  _atom_site_fract_z
  _atom_site_occupancy
  O   O1        1.0  0.10120  0.02550  0.38320  1.0000
  O   O2        1.0  0.97790  0.91520  0.34920  1.0000
  O   O3        1.0  0.74580  0.44500  0.00160  1.0000
  O   O4        1.0  0.51810  0.19960  0.13520  1.0000
  H   H1        1.0  0.50350  0.13140  0.15790  1.0000
  O   O5        1.0  0.74520  0.64960  0.01850  1.0000
  C   C1        1.0  0.31220  0.86920  0.16130  1.0000
  C   C2        1.0  0.71100  0.54410  0.02750  1.0000
  N   N1        1.0  0.44760  0.98280  0.15700  1.0000
  C   C3        1.0  0.08930  0.91140  0.25020  1.0000
  C   C4        1.0  0.21480  0.86620  0.17000  1.0000
  C   C5        1.0  0.59020  0.42190  0.09000  1.0000
  H   H2        1.0  0.62100  0.34880  0.08030  1.0000
  C   C6        1.0  0.05360  0.95520  0.33500  1.0000
  C   C7        1.0  0.62470  0.53730  0.07020  1.0000
  C   C8        1.0  0.03300  0.85360  0.18710  1.0000
  H   H3        1.0  0.97230  0.85060  0.19270  1.0000
  C   C9        1.0  0.58060  0.64630  0.08740  1.0000
  H   H4        1.0  0.60630  0.72300  0.07630  1.0000
  C   C10       1.0  0.16050  0.80310  0.10810  1.0000
  H   H5        1.0  0.18490  0.76320  0.06210  1.0000
  C   C11       1.0  0.00950  0.72490  0.05140  1.0000
  C   C12       1.0  0.44870  0.75880  0.13730  1.0000
  C   C13       1.0  0.49760  0.64280  0.12140  1.0000
  C   C14       1.0  0.17990  0.92050  0.24120  1.0000
  H   H6        1.0  0.21680  0.96290  0.28280  1.0000
  C   C15       1.0  0.48950  0.87560  0.14430  1.0000
  H   H7        1.0  0.55030  0.87900  0.13970  1.0000
  C   C16       1.0  0.50860  0.41800  0.12470  1.0000
  C   C17       1.0  0.46690  0.29500  0.14570  1.0000
  C   C18       1.0  0.06820  0.79900  0.11430  1.0000
  C   C19       1.0  0.36070  0.97770  0.16590  1.0000
  H   H8        1.0  0.33140  0.05200  0.17580  1.0000
  C   C20       1.0  0.35680  0.75780  0.14260  1.0000
  H   H9        1.0  0.32510  0.68380  0.13390  1.0000
  C   C21       1.0  0.46300  0.52760  0.14150  1.0000
  H   H10       1.0  0.40920  0.52320  0.16630  1.0000
  O   O6        1.0  0.39170  0.28640  0.16640  1.0000
  O   O7        1.0  0.04090  0.62290  0.02280  1.0000
  O   O8        1.0  0.93310  0.76070  0.02790  1.0000
  O   O9        1.0  0.89880  0.52550  0.11680  1.0000
  O   O10       1.0  0.02210  0.41520  0.15080  1.0000
  O   O11       1.0  0.25420  0.94500  0.49840  1.0000
  O   O12       1.0  0.48190  0.69960  0.36480  1.0000
  H   H11       1.0  0.49650  0.63140  0.34210  1.0000
  O   O13       1.0  0.25480  0.14960  0.48150  1.0000
  C   C22       1.0  0.68780  0.36920  0.33870  1.0000
  C   C23       1.0  0.28900  0.04410  0.47250  1.0000
  N   N2        1.0  0.55240  0.48280  0.34300  1.0000
  C   C24       1.0  0.91070  0.41140  0.24980  1.0000
  C   C25       1.0  0.78520  0.36620  0.33000  1.0000
  C   C26       1.0  0.40980  0.92190  0.41000  1.0000
  H   H12       1.0  0.37900  0.84880  0.41970  1.0000
  C   C27       1.0  0.94640  0.45520  0.16500  1.0000
  C   C28       1.0  0.37530  0.03730  0.42980  1.0000
  C   C29       1.0  0.96700  0.35360  0.31290  1.0000
  H   H13       1.0  0.02770  0.35060  0.30730  1.0000
  C   C30       1.0  0.41940  0.14630  0.41260  1.0000
  H   H14       1.0  0.39370  0.22300  0.42370  1.0000
  C   C31       1.0  0.83950  0.30310  0.39190  1.0000
  H   H15       1.0  0.81510  0.26320  0.43790  1.0000
  C   C32       1.0  0.99050  0.22490  0.44860  1.0000
  C   C33       1.0  0.55130  0.25880  0.36270  1.0000
  C   C34       1.0  0.50240  0.14280  0.37860  1.0000
  C   C35       1.0  0.82010  0.42050  0.25880  1.0000
  H   H16       1.0  0.78320  0.46290  0.21720  1.0000
  C   C36       1.0  0.51050  0.37560  0.35570  1.0000
  H   H17       1.0  0.44970  0.37900  0.36030  1.0000
  C   C37       1.0  0.49140  0.91800  0.37530  1.0000
  C   C38       1.0  0.53310  0.79500  0.35430  1.0000
  C   C39       1.0  0.93180  0.29900  0.38570  1.0000
  C   C40       1.0  0.63930  0.47770  0.33410  1.0000
  H   H18       1.0  0.66860  0.55200  0.32420  1.0000
  C   C41       1.0  0.64320  0.25780  0.35740  1.0000
  H   H19       1.0  0.67490  0.18380  0.36610  1.0000
  C   C42       1.0  0.53700  0.02760  0.35850  1.0000
  H   H20       1.0  0.59080  0.02320  0.33370  1.0000
  O   O14       1.0  0.60830  0.78640  0.33360  1.0000
  O   O15       1.0  0.95910  0.12290  0.47720  1.0000
  O   O16       1.0  0.06690  0.26070  0.47210  1.0000
  C   C43       1.0  0.40980  0.57810  0.91000  1.0000
  H   H21       1.0  0.37900  0.65120  0.91970  1.0000
  C   C44       1.0  0.94640  0.04480  0.66500  1.0000
  C   C45       1.0  0.37530  0.46270  0.92980  1.0000
  C   C46       1.0  0.96700  0.14640  0.81290  1.0000
  H   H22       1.0  0.02770  0.14940  0.80730  1.0000
  C   C47       1.0  0.41940  0.35370  0.91260  1.0000
  H   H23       1.0  0.39370  0.27700  0.92370  1.0000
  C   C48       1.0  0.83950  0.19690  0.89190  1.0000
  H   H24       1.0  0.81510  0.23680  0.93790  1.0000
  C   C49       1.0  0.99050  0.27510  0.94860  1.0000
  C   C50       1.0  0.55130  0.24120  0.86270  1.0000
  C   C51       1.0  0.50240  0.35720  0.87860  1.0000
  C   C52       1.0  0.82010  0.07950  0.75880  1.0000
  H   H25       1.0  0.78320  0.03710  0.71720  1.0000
  C   C53       1.0  0.51050  0.12440  0.85570  1.0000
  H   H26       1.0  0.44970  0.12100  0.86030  1.0000
  C   C54       1.0  0.49140  0.58200  0.87530  1.0000
  C   C55       1.0  0.53310  0.70500  0.85430  1.0000
  C   C56       1.0  0.93180  0.20100  0.88570  1.0000
  C   C57       1.0  0.63930  0.02230  0.83410  1.0000
  H   H27       1.0  0.66860  0.94800  0.82420  1.0000
  C   C58       1.0  0.64320  0.24220  0.85740  1.0000
  H   H28       1.0  0.67490  0.31620  0.86610  1.0000
  C   C59       1.0  0.53700  0.47240  0.85850  1.0000
  H   H29       1.0  0.59080  0.47680  0.83370  1.0000
  O   O17       1.0  0.60830  0.71360  0.83360  1.0000
  O   O18       1.0  0.95910  0.37710  0.97720  1.0000
  O   O19       1.0  0.06690  0.23930  0.97210  1.0000
  O   O20       1.0  0.89880  0.97450  0.61680  1.0000
  O   O21       1.0  0.02210  0.08480  0.65080  1.0000
  O   O22       1.0  0.25420  0.55500  0.99840  1.0000
  O   O23       1.0  0.48190  0.80040  0.86480  1.0000
  H   H30       1.0  0.49650  0.86860  0.84210  1.0000
  O   O24       1.0  0.25480  0.35040  0.98150  1.0000
  C   C60       1.0  0.68780  0.13080  0.83870  1.0000
  C   C61       1.0  0.28900  0.45590  0.97250  1.0000
  N   N3        1.0  0.55240  0.01720  0.84300  1.0000
  C   C62       1.0  0.91070  0.08860  0.74980  1.0000
  C   C63       1.0  0.78520  0.13380  0.83000  1.0000
  O   O25       1.0  0.10120  0.47450  0.88320  1.0000
  O   O26       1.0  0.97790  0.58480  0.84920  1.0000
  O   O27       1.0  0.74580  0.05500  0.50160  1.0000
  O   O28       1.0  0.51810  0.30040  0.63520  1.0000
  H   H31       1.0  0.50350  0.36860  0.65790  1.0000
  O   O29       1.0  0.74520  0.85040  0.51850  1.0000
  C   C64       1.0  0.31220  0.63080  0.66130  1.0000
  C   C65       1.0  0.71100  0.95590  0.52750  1.0000
  N   N4        1.0  0.44760  0.51720  0.65700  1.0000
  C   C66       1.0  0.08930  0.58860  0.75020  1.0000
  C   C67       1.0  0.21480  0.63380  0.67000  1.0000
  C   C68       1.0  0.59020  0.07810  0.59000  1.0000
  H   H32       1.0  0.62100  0.15120  0.58030  1.0000
  C   C69       1.0  0.05360  0.54480  0.83500  1.0000
  C   C70       1.0  0.62470  0.96270  0.57020  1.0000
  C   C71       1.0  0.03300  0.64640  0.68710  1.0000
  H   H33       1.0  0.97230  0.64940  0.69270  1.0000
  C   C72       1.0  0.58060  0.85370  0.58740  1.0000
  H   H34       1.0  0.60630  0.77700  0.57630  1.0000
  C   C73       1.0  0.16050  0.69690  0.60810  1.0000
  H   H35       1.0  0.18490  0.73680  0.56210  1.0000
  C   C74       1.0  0.00950  0.77510  0.55140  1.0000
  C   C75       1.0  0.44870  0.74120  0.63730  1.0000
  C   C76       1.0  0.49760  0.85720  0.62140  1.0000
  C   C77       1.0  0.17990  0.57950  0.74120  1.0000
  H   H36       1.0  0.21680  0.53710  0.78280  1.0000
  C   C78       1.0  0.48950  0.62440  0.64430  1.0000
  H   H37       1.0  0.55030  0.62100  0.63970  1.0000
  C   C79       1.0  0.50860  0.08200  0.62470  1.0000
  C   C80       1.0  0.46690  0.20500  0.64570  1.0000
  C   C81       1.0  0.06820  0.70100  0.61430  1.0000
  C   C82       1.0  0.36070  0.52230  0.66590  1.0000
  H   H38       1.0  0.33140  0.44800  0.67580  1.0000
  C   C83       1.0  0.35680  0.74220  0.64260  1.0000
  H   H39       1.0  0.32510  0.81620  0.63390  1.0000
  C   C84       1.0  0.46300  0.97240  0.64150  1.0000
  H   H40       1.0  0.40920  0.97680  0.66630  1.0000
  O   O30       1.0  0.39170  0.21360  0.66640  1.0000
  O   O31       1.0  0.04090  0.87710  0.52280  1.0000
  O   O32       1.0  0.93310  0.73930  0.52790  1.0000
  Eu  Eu1       1.0  0.12191  0.06577  0.54111  1.0000
  Eu  Eu2       1.0  0.87809  0.56577  0.95889  1.0000
  Eu  Eu3       1.0  0.87809  0.93423  0.45889  1.0000
  Eu  Eu4       1.0  0.12191  0.43423  0.04111  1.0000
