data_image0
_chemical_formula_structural       HCSNC2HC2O2CH2CSNC2HC2O2CH2NC2SC2HO2C2HNHCSC3HO2C2H3CSNC2HOC2OC2H2CSNC2HC2O2HNC2SC2HO2C2HNHCSC3HO2C2HCH2COSNC2HC2OCH2CSNC2HC2O2HNC2SC2HO2C2HCHONHCSC3OHC2H2CSNC2HOC2O2CH2CSNC2HC2OCHOHNC2SC2OHC3H2NHCSC3O2H3NCHCH9NCHC2HCH6N2CHCH6Cl8Pt2CoPt6Co3
_chemical_formula_sum              "H76 C104 S16 N20 O32 Cl8 Pt8 Co4"
_cell_length_a       17.822
_cell_length_b       9.0411
_cell_length_c       30.291
_cell_angle_alpha    90
_cell_angle_beta     106.966
_cell_angle_gamma    90

_space_group_name_H-M_alt    "P 1"
_space_group_IT_number       1

loop_
  _space_group_symop_operation_xyz
  'x, y, z'

loop_
  _atom_site_type_symbol
  _atom_site_label
  _atom_site_symmetry_multiplicity
  _atom_site_fract_x
  _atom_site_fract_y
  _atom_site_fract_z
  _atom_site_occupancy
  H   H1        1.0  0.73851  0.00590  0.07098  1.0000
  C   C1        1.0  0.68170  0.90840  0.11200  1.0000
  S   S1        1.0  0.79879  0.79991  0.02377  1.0000
  N   N1        1.0  0.72520  0.65060  0.07649  1.0000
  C   C2        1.0  0.61310  0.76020  0.15940  1.0000
  C   C3        1.0  0.74530  0.78350  0.06330  1.0000
  H   H2        1.0  0.66708  0.99714  0.12410  1.0000
  C   C4        1.0  0.68220  0.64670  0.10680  1.0000
  C   C5        1.0  0.72390  0.91320  0.08070  1.0000
  O   O1        1.0  0.58710  0.88340  0.16880  1.0000
  O   O2        1.0  0.60360  0.63800  0.17450  1.0000
  C   C6        1.0  0.66070  0.77150  0.12560  1.0000
  H   H3        1.0  0.66633  0.55326  0.11534  1.0000
  H   H4        1.0  0.05529  0.52854  0.08541  1.0000
  C   C7        1.0  0.03360  0.50160  0.14640  1.0000
  S   S2        1.0  0.91744  0.53950  0.01423  1.0000
  N   N2        1.0  0.87790  0.49210  0.09304  1.0000
  C   C8        1.0  0.99330  0.47140  0.21840  1.0000
  C   C9        1.0  0.93610  0.51290  0.07310  1.0000
  H   H5        1.0  0.08686  0.50197  0.16477  1.0000
  C   C10       1.0  0.89760  0.48030  0.13960  1.0000
  C   C11       1.0  0.01500  0.51620  0.09980  1.0000
  O   O3        1.0  0.06150  0.48450  0.24300  1.0000
  O   O4        1.0  0.93660  0.44340  0.23487  1.0000
  C   C12       1.0  0.97400  0.48620  0.16690  1.0000
  H   H6        1.0  0.85714  0.46754  0.15386  1.0000
  H   H7        1.0  0.79403  0.02536  0.96057  1.0000
  N   N3        1.0  0.78030  0.38130  0.94740  1.0000
  C   C13       1.0  0.78280  0.12260  0.89880  1.0000
  C   C14       1.0  0.76990  0.26990  0.82580  1.0000
  S   S3        1.0  0.80227  0.23382  0.02830  1.0000
  C   C15       1.0  0.78870  0.24910  0.96910  1.0000
  C   C16       1.0  0.77400  0.38350  0.90140  1.0000
  H   H8        1.0  0.78247  0.03377  0.88196  1.0000
  O   O5        1.0  0.75650  0.15570  0.80290  1.0000
  O   O6        1.0  0.77830  0.39470  0.81033  1.0000
  C   C17       1.0  0.78920  0.11770  0.94500  1.0000
  C   C18       1.0  0.77680  0.25870  0.87690  1.0000
  H   H9        1.0  0.76741  0.47598  0.88591  1.0000
  N   N4        1.0  0.66480  0.61410  0.95320  1.0000
  H   H10       1.0  0.49337  0.47418  0.94760  1.0000
  C   C19       1.0  0.50510  0.62500  0.90300  1.0000
  S   S4        1.0  0.63592  0.40170  0.00943  1.0000
  C   C20       1.0  0.53370  0.83050  0.85230  1.0000
  C   C21       1.0  0.61130  0.52730  0.96460  1.0000
  C   C22       1.0  0.63940  0.71360  0.91820  1.0000
  H   H11       1.0  0.45152  0.62649  0.88508  1.0000
  O   O7        1.0  0.57860  0.93350  0.85330  1.0000
  O   O8        1.0  0.46980  0.81340  0.82300  1.0000
  C   C23       1.0  0.53010  0.53490  0.93880  1.0000
  C   C24       1.0  0.56120  0.71950  0.89220  1.0000
  H   H12       1.0  0.67585  0.78027  0.91156  1.0000
  H   H13       1.0  0.83367  0.05326  0.38466  1.0000
  H   H14       1.0  0.76149  0.50590  0.42902  1.0000
  C   C25       1.0  0.81830  0.40840  0.38800  1.0000
  S   S5        1.0  0.70121  0.29991  0.47623  1.0000
  N   N5        1.0  0.77480  0.15060  0.42351  1.0000
  C   C26       1.0  0.88690  0.26020  0.34060  1.0000
  C   C27       1.0  0.75470  0.28350  0.43670  1.0000
  H   H15       1.0  0.83292  0.49714  0.37590  1.0000
  O   O9        1.0  0.91290  0.38340  0.33120  1.0000
  C   C28       1.0  0.81780  0.14670  0.39320  1.0000
  C   C29       1.0  0.77610  0.41320  0.41930  1.0000
  O   O10       1.0  0.89640  0.13800  0.32550  1.0000
  C   C30       1.0  0.83930  0.27150  0.37440  1.0000
  C   C31       1.0  0.52600  0.98620  0.33310  1.0000
  H   H16       1.0  0.64286  0.96754  0.34614  1.0000
  H   H17       1.0  0.44471  0.02854  0.41459  1.0000
  C   C32       1.0  0.46640  0.00160  0.35360  1.0000
  S   S6        1.0  0.58256  0.03950  0.48577  1.0000
  N   N6        1.0  0.62210  0.99210  0.40696  1.0000
  C   C33       1.0  0.50670  0.97140  0.28160  1.0000
  C   C34       1.0  0.56390  0.01290  0.42690  1.0000
  H   H18       1.0  0.41314  0.00197  0.33523  1.0000
  C   C35       1.0  0.60240  0.98030  0.36040  1.0000
  C   C36       1.0  0.48500  0.01620  0.40020  1.0000
  O   O11       1.0  0.43850  0.98450  0.25700  1.0000
  O   O12       1.0  0.56340  0.94340  0.26513  1.0000
  H   H19       1.0  0.70597  0.52536  0.53943  1.0000
  N   N7        1.0  0.71970  0.88130  0.55260  1.0000
  C   C37       1.0  0.71720  0.62260  0.60120  1.0000
  C   C38       1.0  0.73010  0.76990  0.67420  1.0000
  S   S7        1.0  0.69773  0.73382  0.47170  1.0000
  C   C39       1.0  0.71130  0.74910  0.53090  1.0000
  C   C40       1.0  0.72600  0.88350  0.59860  1.0000
  H   H20       1.0  0.71753  0.53377  0.61804  1.0000
  O   O13       1.0  0.74350  0.65570  0.69710  1.0000
  O   O14       1.0  0.72170  0.89470  0.68967  1.0000
  C   C41       1.0  0.71080  0.61770  0.55500  1.0000
  C   C42       1.0  0.72320  0.75870  0.62310  1.0000
  H   H21       1.0  0.73259  0.97598  0.61409  1.0000
  N   N8        1.0  0.83520  0.11410  0.54680  1.0000
  H   H22       1.0  0.00663  0.97418  0.55240  1.0000
  C   C43       1.0  0.99490  0.12500  0.59700  1.0000
  S   S8        1.0  0.86408  0.90170  0.49057  1.0000
  C   C44       1.0  0.96630  0.33050  0.64770  1.0000
  C   C45       1.0  0.88870  0.02730  0.53540  1.0000
  C   C46       1.0  0.86060  0.21360  0.58180  1.0000
  H   H23       1.0  0.04848  0.12649  0.61492  1.0000
  O   O15       1.0  0.92140  0.43350  0.64670  1.0000
  O   O16       1.0  0.03020  0.31340  0.67700  1.0000
  C   C47       1.0  0.96990  0.03490  0.56120  1.0000
  C   C48       1.0  0.93880  0.21950  0.60780  1.0000
  H   H24       1.0  0.82415  0.28027  0.58844  1.0000
  C   C49       1.0  0.33930  0.22850  0.87440  1.0000
  H   H25       1.0  0.33367  0.44674  0.88466  1.0000
  H   H26       1.0  0.26149  0.99410  0.92902  1.0000
  C   C50       1.0  0.31830  0.09160  0.88800  1.0000
  O   O17       1.0  0.41290  0.11660  0.83120  1.0000
  S   S9        1.0  0.20121  0.20009  0.97623  1.0000
  N   N9        1.0  0.27480  0.34940  0.92351  1.0000
  C   C51       1.0  0.38690  0.23980  0.84060  1.0000
  C   C52       1.0  0.25470  0.21650  0.93670  1.0000
  H   H27       1.0  0.33292  0.00286  0.87590  1.0000
  C   C53       1.0  0.31780  0.35330  0.89320  1.0000
  C   C54       1.0  0.27610  0.08680  0.91930  1.0000
  O   O18       1.0  0.39640  0.36200  0.82550  1.0000
  C   C55       1.0  0.02600  0.51380  0.83310  1.0000
  H   H28       1.0  0.14286  0.53246  0.84614  1.0000
  H   H29       1.0  0.94471  0.47146  0.91459  1.0000
  C   C56       1.0  0.96640  0.49840  0.85360  1.0000
  S   S10       1.0  0.08256  0.46050  0.98577  1.0000
  N   N10       1.0  0.12210  0.50790  0.90696  1.0000
  C   C57       1.0  0.00670  0.52860  0.78160  1.0000
  C   C58       1.0  0.06390  0.48710  0.92690  1.0000
  H   H30       1.0  0.91314  0.49804  0.83523  1.0000
  C   C59       1.0  0.10240  0.51970  0.86040  1.0000
  C   C60       1.0  0.98500  0.48380  0.90020  1.0000
  O   O19       1.0  0.93850  0.51550  0.75700  1.0000
  O   O20       1.0  0.06340  0.55660  0.76513  1.0000
  H   H31       1.0  0.20597  0.97464  0.03943  1.0000
  N   N11       1.0  0.21970  0.61870  0.05260  1.0000
  C   C61       1.0  0.21720  0.87740  0.10120  1.0000
  C   C62       1.0  0.23010  0.73010  0.17420  1.0000
  S   S11       1.0  0.19773  0.76618  0.97170  1.0000
  C   C63       1.0  0.21130  0.75090  0.03090  1.0000
  C   C64       1.0  0.22600  0.61650  0.09860  1.0000
  H   H32       1.0  0.21753  0.96623  0.11804  1.0000
  O   O21       1.0  0.22170  0.60530  0.18967  1.0000
  O   O22       1.0  0.24350  0.84430  0.19710  1.0000
  C   C65       1.0  0.21080  0.88230  0.05500  1.0000
  C   C66       1.0  0.22320  0.74130  0.12310  1.0000
  H   H33       1.0  0.23259  0.52402  0.11409  1.0000
  C   C67       1.0  0.43880  0.28050  0.10780  1.0000
  H   H34       1.0  0.32415  0.21973  0.08844  1.0000
  O   O23       1.0  0.53020  0.18660  0.17700  1.0000
  N   N12       1.0  0.33520  0.38590  0.04680  1.0000
  H   H35       1.0  0.50663  0.52582  0.05240  1.0000
  C   C68       1.0  0.49490  0.37500  0.09700  1.0000
  S   S12       1.0  0.36408  0.59830  0.99057  1.0000
  C   C69       1.0  0.46630  0.16950  0.14770  1.0000
  C   C70       1.0  0.38870  0.47270  0.03540  1.0000
  C   C71       1.0  0.36060  0.28640  0.08180  1.0000
  O   O24       1.0  0.42140  0.06650  0.14670  1.0000
  H   H36       1.0  0.54848  0.37351  0.11492  1.0000
  C   C72       1.0  0.46990  0.46510  0.06120  1.0000
  C   C73       1.0  0.16070  0.72850  0.62560  1.0000
  H   H37       1.0  0.16633  0.94674  0.61534  1.0000
  H   H38       1.0  0.23851  0.49410  0.57098  1.0000
  C   C74       1.0  0.18170  0.59160  0.61200  1.0000
  S   S13       1.0  0.29879  0.70009  0.52377  1.0000
  N   N13       1.0  0.22520  0.84940  0.57649  1.0000
  C   C75       1.0  0.11310  0.73980  0.65940  1.0000
  C   C76       1.0  0.24530  0.71650  0.56330  1.0000
  H   H39       1.0  0.16708  0.50286  0.62410  1.0000
  O   O25       1.0  0.08710  0.61660  0.66880  1.0000
  C   C77       1.0  0.18220  0.85330  0.60680  1.0000
  C   C78       1.0  0.22390  0.58680  0.58070  1.0000
  O   O26       1.0  0.10360  0.86200  0.67450  1.0000
  O   O27       1.0  0.43660  0.05660  0.73487  1.0000
  C   C79       1.0  0.47400  0.01380  0.66690  1.0000
  H   H40       1.0  0.35714  0.03246  0.65387  1.0000
  H   H41       1.0  0.55529  0.97146  0.58541  1.0000
  C   C80       1.0  0.53360  0.99840  0.64640  1.0000
  S   S14       1.0  0.41744  0.96050  0.51423  1.0000
  N   N14       1.0  0.37790  0.00790  0.59304  1.0000
  C   C81       1.0  0.49330  0.02860  0.71840  1.0000
  C   C82       1.0  0.43610  0.98710  0.57310  1.0000
  H   H42       1.0  0.58686  0.99804  0.66477  1.0000
  C   C83       1.0  0.39760  0.01970  0.63960  1.0000
  C   C84       1.0  0.51500  0.98380  0.59980  1.0000
  O   O28       1.0  0.56150  0.01550  0.74300  1.0000
  C   C85       1.0  0.27680  0.24130  0.37690  1.0000
  H   H43       1.0  0.26741  0.02402  0.38591  1.0000
  O   O29       1.0  0.27830  0.10530  0.31033  1.0000
  H   H44       1.0  0.29403  0.47464  0.46057  1.0000
  N   N15       1.0  0.28030  0.11870  0.44740  1.0000
  C   C86       1.0  0.28280  0.37740  0.39880  1.0000
  C   C87       1.0  0.26990  0.23010  0.32580  1.0000
  S   S15       1.0  0.30227  0.26618  0.52830  1.0000
  C   C88       1.0  0.28870  0.25090  0.46910  1.0000
  C   C89       1.0  0.27400  0.11650  0.40140  1.0000
  O   O30       1.0  0.25650  0.34430  0.30290  1.0000
  H   H45       1.0  0.28247  0.46623  0.38196  1.0000
  C   C90       1.0  0.28920  0.38230  0.44500  1.0000
  C   C91       1.0  0.03010  0.96510  0.43880  1.0000
  C   C92       1.0  0.06120  0.78050  0.39220  1.0000
  H   H46       1.0  0.17585  0.71973  0.41156  1.0000
  H   H47       1.0  0.95152  0.87351  0.38508  1.0000
  N   N16       1.0  0.16480  0.88590  0.45320  1.0000
  H   H48       1.0  0.99337  0.02582  0.44760  1.0000
  C   C93       1.0  0.00510  0.87500  0.40300  1.0000
  S   S16       1.0  0.13592  0.09830  0.50943  1.0000
  C   C94       1.0  0.03370  0.66950  0.35230  1.0000
  C   C95       1.0  0.11130  0.97270  0.46460  1.0000
  C   C96       1.0  0.13940  0.78640  0.41820  1.0000
  O   O31       1.0  0.07860  0.56650  0.35330  1.0000
  O   O32       1.0  0.96980  0.68660  0.32300  1.0000
  H   H49       1.0  0.36786  0.65415  0.12357  1.0000
  H   H50       1.0  0.40864  0.80320  0.11368  1.0000
  H   H51       1.0  0.46028  0.65762  0.13020  1.0000
  N   N17       1.0  0.42950  0.75990  0.18180  1.0000
  C   C97       1.0  0.43890  0.63840  0.20920  1.0000
  H   H52       1.0  0.37815  0.80232  0.18273  1.0000
  C   C98       1.0  0.41540  0.71500  0.13320  1.0000
  H   H53       1.0  0.39143  0.57744  0.19967  1.0000
  H   H54       1.0  0.44823  0.66918  0.24135  1.0000
  H   H55       1.0  0.48384  0.58091  0.20629  1.0000
  H   H56       1.0  0.10857  0.07744  0.30033  1.0000
  H   H57       1.0  0.05177  0.16918  0.25865  1.0000
  H   H58       1.0  0.01616  0.08091  0.29371  1.0000
  H   H59       1.0  0.13214  0.15415  0.37643  1.0000
  H   H60       1.0  0.09136  0.30320  0.38632  1.0000
  H   H61       1.0  0.03972  0.15762  0.36980  1.0000
  N   N18       1.0  0.07050  0.25990  0.31820  1.0000
  C   C99       1.0  0.06110  0.13840  0.29080  1.0000
  H   H62       1.0  0.12185  0.30232  0.31727  1.0000
  C   C100      1.0  0.08460  0.21500  0.36680  1.0000
  C   C101      1.0  0.56110  0.36160  0.79080  1.0000
  H   H63       1.0  0.62185  0.19768  0.81727  1.0000
  C   C102      1.0  0.58460  0.28500  0.86680  1.0000
  H   H64       1.0  0.60857  0.42256  0.80033  1.0000
  H   H65       1.0  0.55177  0.33082  0.75865  1.0000
  H   H66       1.0  0.51616  0.41909  0.79371  1.0000
  H   H67       1.0  0.63214  0.34585  0.87643  1.0000
  H   H68       1.0  0.59136  0.19680  0.88632  1.0000
  H   H69       1.0  0.53972  0.34238  0.86980  1.0000
  N   N19       1.0  0.57050  0.24010  0.81820  1.0000
  N   N20       1.0  0.92950  0.74010  0.68180  1.0000
  C   C103      1.0  0.93890  0.86160  0.70920  1.0000
  H   H70       1.0  0.87815  0.69768  0.68273  1.0000
  C   C104      1.0  0.91540  0.78500  0.63320  1.0000
  H   H71       1.0  0.89143  0.92256  0.69967  1.0000
  H   H72       1.0  0.94823  0.83082  0.74135  1.0000
  H   H73       1.0  0.98384  0.91909  0.70629  1.0000
  H   H74       1.0  0.86786  0.84585  0.62357  1.0000
  H   H75       1.0  0.90864  0.69680  0.61368  1.0000
  H   H76       1.0  0.96028  0.84238  0.63020  1.0000
  Cl  Cl1       1.0  0.82334  0.72300  0.92440  1.0000
  Cl  Cl2       1.0  0.73279  0.30085  0.11284  1.0000
  Cl  Cl3       1.0  0.67666  0.22300  0.57560  1.0000
  Cl  Cl4       1.0  0.76721  0.80085  0.38716  1.0000
  Cl  Cl5       1.0  0.17666  0.27700  0.07560  1.0000
  Cl  Cl6       1.0  0.26721  0.69915  0.88716  1.0000
  Cl  Cl7       1.0  0.32334  0.77700  0.42440  1.0000
  Cl  Cl8       1.0  0.23279  0.19915  0.61284  1.0000
  Pt  Pt1       1.0  0.78623  0.58164  0.98398  1.0000
  Pt  Pt2       1.0  0.76149  0.45177  0.05265  1.0000
  Co  Co1       1.0  0.99634  0.43129  0.30271  1.0000
  Pt  Pt3       1.0  0.71377  0.08164  0.51602  1.0000
  Pt  Pt4       1.0  0.73851  0.95177  0.44735  1.0000
  Pt  Pt5       1.0  0.21377  0.41836  0.01602  1.0000
  Pt  Pt6       1.0  0.23851  0.54823  0.94735  1.0000
  Pt  Pt7       1.0  0.28623  0.91836  0.48398  1.0000
  Pt  Pt8       1.0  0.26149  0.04823  0.55265  1.0000
  Co  Co2       1.0  0.49634  0.06871  0.80271  1.0000
  Co  Co3       1.0  0.00366  0.56871  0.69729  1.0000
  Co  Co4       1.0  0.50366  0.93129  0.19729  1.0000
