data_image0
_chemical_formula_structural       NC2OCOHOC2HNHCOHNHCOCNCOCO2C2HN2COC2H3OCO2C4NOCOCNOCOCH3C2NOCOCNOCOCH3C2NOCOCH3NOCOC2OCH3C2NOCOCNONOCOCH3C2NOCOCCd8Na8NC2OCOHOC2HNHCOHNHCOCNCOCO2C2HN2COC2H3OCO2C4NOCOCNOCOCH3C2NOCOCNOCOCH3C2NOCOCH3NOCOC2OCH3C2NOCOCNONOCOCH3C2NOCOCCd8Na8
_chemical_formula_sum              "N32 C96 O64 H48 Cd16 Na16"
_cell_length_a       16.3087
_cell_length_b       16.3087
_cell_length_c       12.9894
_cell_angle_alpha    90
_cell_angle_beta     90
_cell_angle_gamma    90

_space_group_name_H-M_alt    "P 1"
_space_group_IT_number       1

loop_
  _space_group_symop_operation_xyz
  'x, y, z'

loop_
  _atom_site_type_symbol
  _atom_site_label
  _atom_site_symmetry_multiplicity
  _atom_site_fract_x
  _atom_site_fract_y
  _atom_site_fract_z
  _atom_site_occupancy
  N   N1        1.0  0.53570  0.31860  0.14370  1.0000
  C   C1        1.0  0.49540  0.20760  0.22995  1.0000
  C   C2        1.0  0.46510  0.35300  0.30460  1.0000
  O   O1        1.0  0.42370  0.32830  0.38290  1.0000
  C   C3        1.0  0.49540  0.29240  0.22995  1.0000
  O   O2        1.0  0.48240  0.42620  0.28835  1.0000
  H   H1        1.0  0.57246  0.28505  0.43586  1.0000
  O   O3        1.0  0.42370  0.17170  0.38290  1.0000
  C   C4        1.0  0.55950  0.25000  0.09445  1.0000
  C   C5        1.0  0.60750  0.25000  0.49775  1.0000
  H   H2        1.0  0.66926  0.28081  0.01161  1.0000
  N   N2        1.0  0.53570  0.18140  0.14370  1.0000
  H   H3        1.0  0.61775  0.18414  0.47130  1.0000
  C   C6        1.0  0.46510  0.14700  0.30460  1.0000
  O   O4        1.0  0.48240  0.07380  0.28835  1.0000
  H   H4        1.0  0.92754  0.28505  0.43586  1.0000
  N   N3        1.0  0.96430  0.31860  0.14370  1.0000
  H   H5        1.0  0.83074  0.28081  0.01161  1.0000
  C   C7        1.0  0.03490  0.35300  0.30460  1.0000
  O   O5        1.0  0.07630  0.32830  0.38290  1.0000
  C   C8        1.0  0.00460  0.29240  0.22995  1.0000
  N   N4        1.0  0.96430  0.18140  0.14370  1.0000
  C   C9        1.0  0.03490  0.14700  0.30460  1.0000
  O   O6        1.0  0.07630  0.17170  0.38290  1.0000
  C   C10       1.0  0.00460  0.20760  0.22995  1.0000
  O   O7        1.0  0.01760  0.07380  0.28835  1.0000
  O   O8        1.0  0.01760  0.42620  0.28835  1.0000
  C   C11       1.0  0.94050  0.25000  0.09445  1.0000
  C   C12       1.0  0.89250  0.25000  0.49775  1.0000
  H   H6        1.0  0.88225  0.18414  0.47130  1.0000
  N   N5        1.0  0.18140  0.53570  0.39370  1.0000
  N   N6        1.0  0.31860  0.53570  0.39370  1.0000
  C   C13       1.0  0.14700  0.46510  0.05460  1.0000
  O   O9        1.0  0.17170  0.42370  0.13290  1.0000
  C   C14       1.0  0.20760  0.49540  0.47995  1.0000
  C   C15       1.0  0.29240  0.49540  0.47995  1.0000
  H   H7        1.0  0.18414  0.61775  0.22130  1.0000
  H   H8        1.0  0.28505  0.57246  0.18586  1.0000
  H   H9        1.0  0.28081  0.66926  0.26161  1.0000
  O   O10       1.0  0.07380  0.48240  0.03835  1.0000
  C   C16       1.0  0.35300  0.46510  0.05460  1.0000
  O   O11       1.0  0.32830  0.42370  0.13290  1.0000
  O   O12       1.0  0.42620  0.48240  0.03835  1.0000
  C   C17       1.0  0.25000  0.55950  0.34445  1.0000
  C   C18       1.0  0.25000  0.60750  0.24775  1.0000
  C   C19       1.0  0.25000  0.94050  0.34445  1.0000
  C   C20       1.0  0.25000  0.89250  0.24775  1.0000
  N   N7        1.0  0.18140  0.96430  0.39370  1.0000
  O   O13       1.0  0.17170  0.07630  0.13290  1.0000
  C   C21       1.0  0.14700  0.03490  0.05460  1.0000
  O   O14       1.0  0.07380  0.01760  0.03835  1.0000
  C   C22       1.0  0.20760  0.00460  0.47995  1.0000
  N   N8        1.0  0.31860  0.96430  0.39370  1.0000
  O   O15       1.0  0.32830  0.07630  0.13290  1.0000
  C   C23       1.0  0.35300  0.03490  0.05460  1.0000
  O   O16       1.0  0.42620  0.01760  0.03835  1.0000
  C   C24       1.0  0.29240  0.00460  0.47995  1.0000
  H   H10       1.0  0.28505  0.92754  0.18586  1.0000
  H   H11       1.0  0.18414  0.88225  0.22130  1.0000
  H   H12       1.0  0.28081  0.83074  0.26161  1.0000
  C   C25       1.0  0.44050  0.75000  0.40555  1.0000
  C   C26       1.0  0.39250  0.75000  0.00225  1.0000
  N   N9        1.0  0.46430  0.68140  0.35630  1.0000
  O   O17       1.0  0.57630  0.67170  0.11710  1.0000
  C   C27       1.0  0.53490  0.64700  0.19540  1.0000
  O   O18       1.0  0.51760  0.57380  0.21165  1.0000
  C   C28       1.0  0.50460  0.70760  0.27005  1.0000
  N   N10       1.0  0.46430  0.81860  0.35630  1.0000
  O   O19       1.0  0.57630  0.82830  0.11710  1.0000
  C   C29       1.0  0.53490  0.85300  0.19540  1.0000
  O   O20       1.0  0.51760  0.92620  0.21165  1.0000
  C   C30       1.0  0.50460  0.79240  0.27005  1.0000
  H   H13       1.0  0.37810  0.68414  0.02545  1.0000
  H   H14       1.0  0.33281  0.78505  0.49002  1.0000
  H   H15       1.0  0.42962  0.78081  0.06577  1.0000
  C   C31       1.0  0.05950  0.75000  0.40555  1.0000
  C   C32       1.0  0.10750  0.75000  0.00225  1.0000
  N   N11       1.0  0.03570  0.81860  0.35630  1.0000
  O   O21       1.0  0.92370  0.82830  0.11710  1.0000
  C   C33       1.0  0.96510  0.85300  0.19540  1.0000
  O   O22       1.0  0.98240  0.92620  0.21165  1.0000
  C   C34       1.0  0.99540  0.79240  0.27005  1.0000
  H   H16       1.0  0.16719  0.78505  0.49002  1.0000
  H   H17       1.0  0.12190  0.68414  0.02545  1.0000
  H   H18       1.0  0.07038  0.78081  0.06577  1.0000
  N   N12       1.0  0.03570  0.68140  0.35630  1.0000
  O   O23       1.0  0.92370  0.67170  0.11710  1.0000
  C   C35       1.0  0.96510  0.64700  0.19540  1.0000
  O   O24       1.0  0.98240  0.57380  0.21165  1.0000
  C   C36       1.0  0.99540  0.70760  0.27005  1.0000
  C   C37       1.0  0.85300  0.96510  0.44540  1.0000
  O   O25       1.0  0.92620  0.98240  0.46165  1.0000
  C   C38       1.0  0.79240  0.99540  0.02005  1.0000
  H   H19       1.0  0.71705  0.07139  0.31498  1.0000
  H   H20       1.0  0.71705  0.16826  0.23918  1.0000
  H   H21       1.0  0.81590  0.11982  0.27708  1.0000
  C   C39       1.0  0.75000  0.05950  0.15555  1.0000
  C   C40       1.0  0.75000  0.10750  0.25225  1.0000
  N   N13       1.0  0.68140  0.03570  0.10630  1.0000
  O   O26       1.0  0.67170  0.92370  0.36710  1.0000
  C   C41       1.0  0.64700  0.96510  0.44540  1.0000
  O   O27       1.0  0.57380  0.98240  0.46165  1.0000
  C   C42       1.0  0.70760  0.99540  0.02005  1.0000
  N   N14       1.0  0.81860  0.03570  0.10630  1.0000
  O   O28       1.0  0.82830  0.92370  0.36710  1.0000
  N   N15       1.0  0.68140  0.46430  0.10630  1.0000
  O   O29       1.0  0.67170  0.57630  0.36710  1.0000
  C   C43       1.0  0.64700  0.53490  0.44540  1.0000
  O   O30       1.0  0.57380  0.51760  0.46165  1.0000
  C   C44       1.0  0.70760  0.50460  0.02005  1.0000
  H   H22       1.0  0.71705  0.42861  0.31498  1.0000
  H   H23       1.0  0.81590  0.38018  0.27708  1.0000
  H   H24       1.0  0.71705  0.33174  0.23918  1.0000
  C   C45       1.0  0.75000  0.44050  0.15555  1.0000
  C   C46       1.0  0.75000  0.39250  0.25225  1.0000
  N   N16       1.0  0.81860  0.46430  0.10630  1.0000
  O   O31       1.0  0.82830  0.57630  0.36710  1.0000
  C   C47       1.0  0.85300  0.53490  0.44540  1.0000
  O   O32       1.0  0.92620  0.51760  0.46165  1.0000
  C   C48       1.0  0.79240  0.50460  0.02005  1.0000
  Cd  Cd1       1.0  0.54467  0.45533  0.12500  1.0000
  Cd  Cd2       1.0  0.95533  0.04467  0.12500  1.0000
  Cd  Cd3       1.0  0.04467  0.54467  0.37500  1.0000
  Cd  Cd4       1.0  0.45533  0.95533  0.37500  1.0000
  Cd  Cd5       1.0  0.45533  0.54467  0.37500  1.0000
  Cd  Cd6       1.0  0.04467  0.95533  0.37500  1.0000
  Cd  Cd7       1.0  0.95533  0.45533  0.12500  1.0000
  Cd  Cd8       1.0  0.54467  0.04467  0.12500  1.0000
  Na  Na1       1.0  0.31980  0.25000  0.41300  1.0000
  Na  Na2       1.0  0.18020  0.25000  0.41300  1.0000
  Na  Na3       1.0  0.25000  0.31980  0.16300  1.0000
  Na  Na4       1.0  0.25000  0.18020  0.16300  1.0000
  Na  Na5       1.0  0.68020  0.75000  0.08700  1.0000
  Na  Na6       1.0  0.81980  0.75000  0.08700  1.0000
  Na  Na7       1.0  0.75000  0.81980  0.33700  1.0000
  Na  Na8       1.0  0.75000  0.68020  0.33700  1.0000
  N   N17       1.0  0.53570  0.31860  0.64370  1.0000
  C   C49       1.0  0.49540  0.20760  0.72995  1.0000
  C   C50       1.0  0.46510  0.35300  0.80460  1.0000
  O   O33       1.0  0.42370  0.32830  0.88290  1.0000
  C   C51       1.0  0.49540  0.29240  0.72995  1.0000
  O   O34       1.0  0.48240  0.42620  0.78835  1.0000
  H   H25       1.0  0.57246  0.28505  0.93586  1.0000
  O   O35       1.0  0.42370  0.17170  0.88290  1.0000
  C   C52       1.0  0.55950  0.25000  0.59445  1.0000
  C   C53       1.0  0.60750  0.25000  0.99775  1.0000
  H   H26       1.0  0.66926  0.28081  0.51161  1.0000
  N   N18       1.0  0.53570  0.18140  0.64370  1.0000
  H   H27       1.0  0.61775  0.18414  0.97130  1.0000
  C   C54       1.0  0.46510  0.14700  0.80460  1.0000
  O   O36       1.0  0.48240  0.07380  0.78835  1.0000
  H   H28       1.0  0.92754  0.28505  0.93586  1.0000
  N   N19       1.0  0.96430  0.31860  0.64370  1.0000
  H   H29       1.0  0.83074  0.28081  0.51161  1.0000
  C   C55       1.0  0.03490  0.35300  0.80460  1.0000
  O   O37       1.0  0.07630  0.32830  0.88290  1.0000
  C   C56       1.0  0.00460  0.29240  0.72995  1.0000
  N   N20       1.0  0.96430  0.18140  0.64370  1.0000
  C   C57       1.0  0.03490  0.14700  0.80460  1.0000
  O   O38       1.0  0.07630  0.17170  0.88290  1.0000
  C   C58       1.0  0.00460  0.20760  0.72995  1.0000
  O   O39       1.0  0.01760  0.07380  0.78835  1.0000
  O   O40       1.0  0.01760  0.42620  0.78835  1.0000
  C   C59       1.0  0.94050  0.25000  0.59445  1.0000
  C   C60       1.0  0.89250  0.25000  0.99775  1.0000
  H   H30       1.0  0.88225  0.18414  0.97130  1.0000
  N   N21       1.0  0.18140  0.53570  0.89370  1.0000
  N   N22       1.0  0.31860  0.53570  0.89370  1.0000
  C   C61       1.0  0.14700  0.46510  0.55460  1.0000
  O   O41       1.0  0.17170  0.42370  0.63290  1.0000
  C   C62       1.0  0.20760  0.49540  0.97995  1.0000
  C   C63       1.0  0.29240  0.49540  0.97995  1.0000
  H   H31       1.0  0.18414  0.61775  0.72130  1.0000
  H   H32       1.0  0.28505  0.57246  0.68586  1.0000
  H   H33       1.0  0.28081  0.66926  0.76161  1.0000
  O   O42       1.0  0.07380  0.48240  0.53835  1.0000
  C   C64       1.0  0.35300  0.46510  0.55460  1.0000
  O   O43       1.0  0.32830  0.42370  0.63290  1.0000
  O   O44       1.0  0.42620  0.48240  0.53835  1.0000
  C   C65       1.0  0.25000  0.55950  0.84445  1.0000
  C   C66       1.0  0.25000  0.60750  0.74775  1.0000
  C   C67       1.0  0.25000  0.94050  0.84445  1.0000
  C   C68       1.0  0.25000  0.89250  0.74775  1.0000
  N   N23       1.0  0.18140  0.96430  0.89370  1.0000
  O   O45       1.0  0.17170  0.07630  0.63290  1.0000
  C   C69       1.0  0.14700  0.03490  0.55460  1.0000
  O   O46       1.0  0.07380  0.01760  0.53835  1.0000
  C   C70       1.0  0.20760  0.00460  0.97995  1.0000
  N   N24       1.0  0.31860  0.96430  0.89370  1.0000
  O   O47       1.0  0.32830  0.07630  0.63290  1.0000
  C   C71       1.0  0.35300  0.03490  0.55460  1.0000
  O   O48       1.0  0.42620  0.01760  0.53835  1.0000
  C   C72       1.0  0.29240  0.00460  0.97995  1.0000
  H   H34       1.0  0.28505  0.92754  0.68586  1.0000
  H   H35       1.0  0.18414  0.88225  0.72130  1.0000
  H   H36       1.0  0.28081  0.83074  0.76161  1.0000
  C   C73       1.0  0.44050  0.75000  0.90555  1.0000
  C   C74       1.0  0.39250  0.75000  0.50225  1.0000
  N   N25       1.0  0.46430  0.68140  0.85630  1.0000
  O   O49       1.0  0.57630  0.67170  0.61710  1.0000
  C   C75       1.0  0.53490  0.64700  0.69540  1.0000
  O   O50       1.0  0.51760  0.57380  0.71165  1.0000
  C   C76       1.0  0.50460  0.70760  0.77005  1.0000
  N   N26       1.0  0.46430  0.81860  0.85630  1.0000
  O   O51       1.0  0.57630  0.82830  0.61710  1.0000
  C   C77       1.0  0.53490  0.85300  0.69540  1.0000
  O   O52       1.0  0.51760  0.92620  0.71165  1.0000
  C   C78       1.0  0.50460  0.79240  0.77005  1.0000
  H   H37       1.0  0.37810  0.68414  0.52546  1.0000
  H   H38       1.0  0.33281  0.78505  0.99002  1.0000
  H   H39       1.0  0.42962  0.78081  0.56577  1.0000
  C   C79       1.0  0.05950  0.75000  0.90555  1.0000
  C   C80       1.0  0.10750  0.75000  0.50225  1.0000
  N   N27       1.0  0.03570  0.81860  0.85630  1.0000
  O   O53       1.0  0.92370  0.82830  0.61710  1.0000
  C   C81       1.0  0.96510  0.85300  0.69540  1.0000
  O   O54       1.0  0.98240  0.92620  0.71165  1.0000
  C   C82       1.0  0.99540  0.79240  0.77005  1.0000
  H   H40       1.0  0.16719  0.78505  0.99002  1.0000
  H   H41       1.0  0.12190  0.68414  0.52546  1.0000
  H   H42       1.0  0.07038  0.78081  0.56577  1.0000
  N   N28       1.0  0.03570  0.68140  0.85630  1.0000
  O   O55       1.0  0.92370  0.67170  0.61710  1.0000
  C   C83       1.0  0.96510  0.64700  0.69540  1.0000
  O   O56       1.0  0.98240  0.57380  0.71165  1.0000
  C   C84       1.0  0.99540  0.70760  0.77005  1.0000
  C   C85       1.0  0.85300  0.96510  0.94540  1.0000
  O   O57       1.0  0.92620  0.98240  0.96165  1.0000
  C   C86       1.0  0.79240  0.99540  0.52005  1.0000
  H   H43       1.0  0.71705  0.07139  0.81498  1.0000
  H   H44       1.0  0.71705  0.16826  0.73918  1.0000
  H   H45       1.0  0.81590  0.11982  0.77708  1.0000
  C   C87       1.0  0.75000  0.05950  0.65555  1.0000
  C   C88       1.0  0.75000  0.10750  0.75225  1.0000
  N   N29       1.0  0.68140  0.03570  0.60630  1.0000
  O   O58       1.0  0.67170  0.92370  0.86710  1.0000
  C   C89       1.0  0.64700  0.96510  0.94540  1.0000
  O   O59       1.0  0.57380  0.98240  0.96165  1.0000
  C   C90       1.0  0.70760  0.99540  0.52005  1.0000
  N   N30       1.0  0.81860  0.03570  0.60630  1.0000
  O   O60       1.0  0.82830  0.92370  0.86710  1.0000
  N   N31       1.0  0.68140  0.46430  0.60630  1.0000
  O   O61       1.0  0.67170  0.57630  0.86710  1.0000
  C   C91       1.0  0.64700  0.53490  0.94540  1.0000
  O   O62       1.0  0.57380  0.51760  0.96165  1.0000
  C   C92       1.0  0.70760  0.50460  0.52005  1.0000
  H   H46       1.0  0.71705  0.42861  0.81498  1.0000
  H   H47       1.0  0.81590  0.38018  0.77708  1.0000
  H   H48       1.0  0.71705  0.33174  0.73918  1.0000
  C   C93       1.0  0.75000  0.44050  0.65555  1.0000
  C   C94       1.0  0.75000  0.39250  0.75225  1.0000
  N   N32       1.0  0.81860  0.46430  0.60630  1.0000
  O   O63       1.0  0.82830  0.57630  0.86710  1.0000
  C   C95       1.0  0.85300  0.53490  0.94540  1.0000
  O   O64       1.0  0.92620  0.51760  0.96165  1.0000
  C   C96       1.0  0.79240  0.50460  0.52005  1.0000
  Cd  Cd9       1.0  0.54467  0.45533  0.62500  1.0000
  Cd  Cd10      1.0  0.95533  0.04467  0.62500  1.0000
  Cd  Cd11      1.0  0.04467  0.54467  0.87500  1.0000
  Cd  Cd12      1.0  0.45533  0.95533  0.87500  1.0000
  Cd  Cd13      1.0  0.45533  0.54467  0.87500  1.0000
  Cd  Cd14      1.0  0.04467  0.95533  0.87500  1.0000
  Cd  Cd15      1.0  0.95533  0.45533  0.62500  1.0000
  Cd  Cd16      1.0  0.54467  0.04467  0.62500  1.0000
  Na  Na9       1.0  0.31980  0.25000  0.91300  1.0000
  Na  Na10      1.0  0.18020  0.25000  0.91300  1.0000
  Na  Na11      1.0  0.25000  0.31980  0.66300  1.0000
  Na  Na12      1.0  0.25000  0.18020  0.66300  1.0000
  Na  Na13      1.0  0.68020  0.75000  0.58700  1.0000
  Na  Na14      1.0  0.81980  0.75000  0.58700  1.0000
  Na  Na15      1.0  0.75000  0.81980  0.83700  1.0000
  Na  Na16      1.0  0.75000  0.68020  0.83700  1.0000
