data_image0
_chemical_formula_structural       NHNO3HOC7HCHC3HCH3CH3NHNO3HOC7HCHC3HCH3CH3NHNO3HOC7HCHC3HCH3CH3NHNO3HOC7HCHC3HCH3CH3C7HCHC3HCH3CH3NHNO3HONHNO3HOC7HCHC3HCH3CH3NHNO3HOC7HCHC3HCH3CH3NHNO3HOC7HCHC3HCH3CH3CHC3HCH3CH3NHNO3HOC7HNHNO3HOC7HCHC3HCH3CH3NHNO3HOC7HCHC3HCH3CH3NHNO3HOC7HCHC3HCH3CH5CH3NHNO3HOC7HCHC3HCHNHNO3HOC7HCHC3HCH3CH3NHNO3HOC7HCHC3HCH3CH3NHNO3HOC7HCHC3HCH3CH3Sr8
_chemical_formula_sum              "N32 H176 O64 C208 Sr8"
_cell_length_a       16.795
_cell_length_b       16.795
_cell_length_c       17.5814
_cell_angle_alpha    90
_cell_angle_beta     90
_cell_angle_gamma    90

_space_group_name_H-M_alt    "P 1"
_space_group_IT_number       1

loop_
  _space_group_symop_operation_xyz
  'x, y, z'

loop_
  _atom_site_type_symbol
  _atom_site_label
  _atom_site_symmetry_multiplicity
  _atom_site_fract_x
  _atom_site_fract_y
  _atom_site_fract_z
  _atom_site_occupancy
  N   N1        1.0  0.91014  0.49433  0.58175  1.0000
  H   H1        1.0  0.88070  0.45280  0.58720  1.0000
  N   N2        1.0  0.94666  0.61709  0.55187  1.0000
  O   O1        1.0  0.99640  0.36650  0.63430  1.0000
  O   O2        1.0  0.10550  0.44162  0.64938  1.0000
  O   O3        1.0  0.14762  0.58034  0.61965  1.0000
  H   H2        1.0  0.13400  0.53480  0.63030  1.0000
  O   O4        1.0  0.09600  0.68570  0.56481  1.0000
  C   C1        1.0  0.03403  0.43050  0.63009  1.0000
  C   C2        1.0  0.98932  0.49963  0.59893  1.0000
  C   C3        1.0  0.01127  0.57617  0.58067  1.0000
  C   C4        1.0  0.08864  0.61740  0.58776  1.0000
  C   C5        1.0  0.88587  0.56616  0.55453  1.0000
  C   C6        1.0  0.80294  0.58489  0.53476  1.0000
  C   C7        1.0  0.75044  0.52654  0.51006  1.0000
  H   H3        1.0  0.76790  0.47440  0.50340  1.0000
  C   C8        1.0  0.67165  0.54650  0.49535  1.0000
  H   H4        1.0  0.63680  0.50730  0.47850  1.0000
  C   C9        1.0  0.64367  0.62385  0.50518  1.0000
  C   C10       1.0  0.69608  0.68260  0.53025  1.0000
  C   C11       1.0  0.77579  0.66275  0.54419  1.0000
  H   H5        1.0  0.81110  0.70210  0.56000  1.0000
  C   C12       1.0  0.55719  0.64260  0.48890  1.0000
  H   H6        1.0  0.53050  0.59510  0.47240  1.0000
  H   H7        1.0  0.55400  0.68230  0.44970  1.0000
  H   H8        1.0  0.53220  0.66230  0.53430  1.0000
  C   C13       1.0  0.66920  0.76670  0.54490  1.0000
  H   H9        1.0  0.61360  0.77150  0.53300  1.0000
  H   H10       1.0  0.69930  0.80260  0.51350  1.0000
  H   H11       1.0  0.67760  0.77970  0.59740  1.0000
  N   N3        1.0  0.41014  0.99433  0.08175  1.0000
  H   H12       1.0  0.38070  0.95280  0.08720  1.0000
  N   N4        1.0  0.44666  0.11709  0.05187  1.0000
  O   O5        1.0  0.49640  0.86650  0.13430  1.0000
  O   O6        1.0  0.60550  0.94162  0.14938  1.0000
  O   O7        1.0  0.64762  0.08034  0.11965  1.0000
  H   H13       1.0  0.63400  0.03480  0.13030  1.0000
  O   O8        1.0  0.59600  0.18570  0.06481  1.0000
  C   C14       1.0  0.53403  0.93050  0.13009  1.0000
  C   C15       1.0  0.48932  0.99963  0.09893  1.0000
  C   C16       1.0  0.51127  0.07617  0.08067  1.0000
  C   C17       1.0  0.58864  0.11740  0.08776  1.0000
  C   C18       1.0  0.38587  0.06616  0.05453  1.0000
  C   C19       1.0  0.30294  0.08489  0.03476  1.0000
  C   C20       1.0  0.25044  0.02654  0.01006  1.0000
  H   H14       1.0  0.26790  0.97440  0.00340  1.0000
  C   C21       1.0  0.17165  0.04650  0.99535  1.0000
  H   H15       1.0  0.13680  0.00730  0.97850  1.0000
  C   C22       1.0  0.14367  0.12385  0.00518  1.0000
  C   C23       1.0  0.19608  0.18260  0.03025  1.0000
  C   C24       1.0  0.27579  0.16275  0.04419  1.0000
  H   H16       1.0  0.31110  0.20210  0.06000  1.0000
  C   C25       1.0  0.05719  0.14260  0.98890  1.0000
  H   H17       1.0  0.03050  0.09510  0.97240  1.0000
  H   H18       1.0  0.05400  0.18230  0.94970  1.0000
  H   H19       1.0  0.03220  0.16230  0.03430  1.0000
  C   C26       1.0  0.16920  0.26670  0.04490  1.0000
  H   H20       1.0  0.11360  0.27150  0.03300  1.0000
  H   H21       1.0  0.19930  0.30260  0.01350  1.0000
  H   H22       1.0  0.17760  0.27970  0.09740  1.0000
  N   N5        1.0  0.58986  0.50567  0.08175  1.0000
  H   H23       1.0  0.61930  0.54720  0.08720  1.0000
  N   N6        1.0  0.55334  0.38291  0.05187  1.0000
  O   O9        1.0  0.50360  0.63350  0.13430  1.0000
  O   O10       1.0  0.39450  0.55838  0.14938  1.0000
  O   O11       1.0  0.35238  0.41966  0.11965  1.0000
  H   H24       1.0  0.36600  0.46520  0.13030  1.0000
  O   O12       1.0  0.40400  0.31430  0.06481  1.0000
  C   C27       1.0  0.46597  0.56950  0.13009  1.0000
  C   C28       1.0  0.51068  0.50037  0.09893  1.0000
  C   C29       1.0  0.48873  0.42383  0.08067  1.0000
  C   C30       1.0  0.41136  0.38260  0.08776  1.0000
  C   C31       1.0  0.61413  0.43384  0.05453  1.0000
  C   C32       1.0  0.69706  0.41511  0.03476  1.0000
  C   C33       1.0  0.74956  0.47346  0.01006  1.0000
  H   H25       1.0  0.73210  0.52560  0.00340  1.0000
  C   C34       1.0  0.82835  0.45350  0.99535  1.0000
  H   H26       1.0  0.86320  0.49270  0.97850  1.0000
  C   C35       1.0  0.85633  0.37615  0.00518  1.0000
  C   C36       1.0  0.80392  0.31740  0.03025  1.0000
  C   C37       1.0  0.72421  0.33725  0.04419  1.0000
  H   H27       1.0  0.68890  0.29790  0.06000  1.0000
  C   C38       1.0  0.94281  0.35740  0.98890  1.0000
  H   H28       1.0  0.96950  0.40490  0.97240  1.0000
  H   H29       1.0  0.94600  0.31770  0.94970  1.0000
  H   H30       1.0  0.96780  0.33770  0.03430  1.0000
  C   C39       1.0  0.83080  0.23330  0.04490  1.0000
  H   H31       1.0  0.88640  0.22850  0.03300  1.0000
  H   H32       1.0  0.80070  0.19740  0.01350  1.0000
  H   H33       1.0  0.82240  0.22030  0.09740  1.0000
  N   N7        1.0  0.08986  0.00567  0.58175  1.0000
  H   H34       1.0  0.11930  0.04720  0.58720  1.0000
  N   N8        1.0  0.05334  0.88291  0.55187  1.0000
  O   O13       1.0  0.00360  0.13350  0.63430  1.0000
  O   O14       1.0  0.89450  0.05838  0.64938  1.0000
  O   O15       1.0  0.85238  0.91966  0.61965  1.0000
  H   H35       1.0  0.86600  0.96520  0.63030  1.0000
  O   O16       1.0  0.90400  0.81430  0.56481  1.0000
  C   C40       1.0  0.96597  0.06950  0.63009  1.0000
  C   C41       1.0  0.01068  0.00037  0.59893  1.0000
  C   C42       1.0  0.98873  0.92383  0.58067  1.0000
  C   C43       1.0  0.91136  0.88260  0.58776  1.0000
  C   C44       1.0  0.11413  0.93384  0.55453  1.0000
  C   C45       1.0  0.19706  0.91511  0.53476  1.0000
  C   C46       1.0  0.24956  0.97346  0.51006  1.0000
  H   H36       1.0  0.23210  0.02560  0.50340  1.0000
  C   C47       1.0  0.32835  0.95350  0.49535  1.0000
  H   H37       1.0  0.36320  0.99270  0.47850  1.0000
  C   C48       1.0  0.35633  0.87615  0.50518  1.0000
  C   C49       1.0  0.30392  0.81740  0.53025  1.0000
  C   C50       1.0  0.22421  0.83725  0.54419  1.0000
  H   H38       1.0  0.18890  0.79790  0.56000  1.0000
  C   C51       1.0  0.44281  0.85740  0.48890  1.0000
  H   H39       1.0  0.46950  0.90490  0.47240  1.0000
  H   H40       1.0  0.44600  0.81770  0.44970  1.0000
  H   H41       1.0  0.46780  0.83770  0.53430  1.0000
  C   C52       1.0  0.33080  0.73330  0.54490  1.0000
  H   H42       1.0  0.38640  0.72850  0.53300  1.0000
  H   H43       1.0  0.30070  0.69740  0.51350  1.0000
  H   H44       1.0  0.32240  0.72030  0.59740  1.0000
  C   C53       1.0  0.31950  0.28403  0.88009  1.0000
  C   C54       1.0  0.25037  0.23932  0.84893  1.0000
  C   C55       1.0  0.17383  0.26127  0.83067  1.0000
  C   C56       1.0  0.13260  0.33864  0.83776  1.0000
  C   C57       1.0  0.18384  0.13587  0.80453  1.0000
  C   C58       1.0  0.16511  0.05294  0.78476  1.0000
  C   C59       1.0  0.22346  0.00044  0.76006  1.0000
  H   H45       1.0  0.27560  0.01790  0.75340  1.0000
  C   C60       1.0  0.20350  0.92165  0.74535  1.0000
  H   H46       1.0  0.24270  0.88680  0.72850  1.0000
  C   C61       1.0  0.12615  0.89367  0.75518  1.0000
  C   C62       1.0  0.06740  0.94608  0.78025  1.0000
  C   C63       1.0  0.08725  0.02579  0.79419  1.0000
  H   H47       1.0  0.04790  0.06110  0.81000  1.0000
  C   C64       1.0  0.10740  0.80719  0.73890  1.0000
  H   H48       1.0  0.15490  0.78050  0.72240  1.0000
  H   H49       1.0  0.06770  0.80400  0.69970  1.0000
  H   H50       1.0  0.08770  0.78220  0.78430  1.0000
  C   C65       1.0  0.98330  0.91920  0.79490  1.0000
  H   H51       1.0  0.97850  0.86360  0.78300  1.0000
  H   H52       1.0  0.94740  0.94930  0.76350  1.0000
  H   H53       1.0  0.97030  0.92760  0.84740  1.0000
  N   N9        1.0  0.25567  0.16014  0.83175  1.0000
  H   H54       1.0  0.29720  0.13070  0.83720  1.0000
  N   N10       1.0  0.13291  0.19666  0.80187  1.0000
  O   O17       1.0  0.38350  0.24640  0.88430  1.0000
  O   O18       1.0  0.30838  0.35550  0.89938  1.0000
  O   O19       1.0  0.16966  0.39762  0.86965  1.0000
  H   H55       1.0  0.21520  0.38400  0.88030  1.0000
  O   O20       1.0  0.06430  0.34600  0.81481  1.0000
  N   N11       1.0  0.75567  0.66014  0.33175  1.0000
  H   H56       1.0  0.79720  0.63070  0.33720  1.0000
  N   N12       1.0  0.63291  0.69666  0.30187  1.0000
  O   O21       1.0  0.88350  0.74640  0.38430  1.0000
  O   O22       1.0  0.80838  0.85550  0.39938  1.0000
  O   O23       1.0  0.66966  0.89762  0.36965  1.0000
  H   H57       1.0  0.71520  0.88400  0.38030  1.0000
  O   O24       1.0  0.56430  0.84600  0.31481  1.0000
  C   C66       1.0  0.81950  0.78403  0.38009  1.0000
  C   C67       1.0  0.75037  0.73932  0.34893  1.0000
  C   C68       1.0  0.67383  0.76127  0.33067  1.0000
  C   C69       1.0  0.63260  0.83864  0.33776  1.0000
  C   C70       1.0  0.68384  0.63587  0.30453  1.0000
  C   C71       1.0  0.66511  0.55294  0.28476  1.0000
  C   C72       1.0  0.72346  0.50044  0.26006  1.0000
  H   H58       1.0  0.77560  0.51790  0.25340  1.0000
  C   C73       1.0  0.70350  0.42165  0.24535  1.0000
  H   H59       1.0  0.74270  0.38680  0.22850  1.0000
  C   C74       1.0  0.62615  0.39367  0.25518  1.0000
  C   C75       1.0  0.56740  0.44608  0.28025  1.0000
  C   C76       1.0  0.58725  0.52579  0.29419  1.0000
  H   H60       1.0  0.54790  0.56110  0.31000  1.0000
  C   C77       1.0  0.60740  0.30719  0.23890  1.0000
  H   H61       1.0  0.65490  0.28050  0.22240  1.0000
  H   H62       1.0  0.56770  0.30400  0.19970  1.0000
  H   H63       1.0  0.58770  0.28220  0.28430  1.0000
  C   C78       1.0  0.48330  0.41920  0.29490  1.0000
  H   H64       1.0  0.47850  0.36360  0.28300  1.0000
  H   H65       1.0  0.44740  0.44930  0.26350  1.0000
  H   H66       1.0  0.47030  0.42760  0.34740  1.0000
  N   N13       1.0  0.24433  0.83986  0.33175  1.0000
  H   H67       1.0  0.20280  0.86930  0.33720  1.0000
  N   N14       1.0  0.36709  0.80334  0.30187  1.0000
  O   O25       1.0  0.11650  0.75360  0.38430  1.0000
  O   O26       1.0  0.19162  0.64450  0.39938  1.0000
  O   O27       1.0  0.33034  0.60238  0.36965  1.0000
  H   H68       1.0  0.28480  0.61600  0.38030  1.0000
  O   O28       1.0  0.43570  0.65400  0.31481  1.0000
  C   C79       1.0  0.18050  0.71597  0.38009  1.0000
  C   C80       1.0  0.24963  0.76068  0.34893  1.0000
  C   C81       1.0  0.32617  0.73873  0.33067  1.0000
  C   C82       1.0  0.36740  0.66136  0.33776  1.0000
  C   C83       1.0  0.31616  0.86413  0.30453  1.0000
  C   C84       1.0  0.33489  0.94706  0.28476  1.0000
  C   C85       1.0  0.27654  0.99956  0.26006  1.0000
  H   H69       1.0  0.22440  0.98210  0.25340  1.0000
  C   C86       1.0  0.29650  0.07835  0.24535  1.0000
  H   H70       1.0  0.25730  0.11320  0.22850  1.0000
  C   C87       1.0  0.37385  0.10633  0.25518  1.0000
  C   C88       1.0  0.43260  0.05392  0.28025  1.0000
  C   C89       1.0  0.41275  0.97421  0.29419  1.0000
  H   H71       1.0  0.45210  0.93890  0.31000  1.0000
  C   C90       1.0  0.39260  0.19281  0.23890  1.0000
  H   H72       1.0  0.34510  0.21950  0.22240  1.0000
  H   H73       1.0  0.43230  0.19600  0.19970  1.0000
  H   H74       1.0  0.41230  0.21780  0.28430  1.0000
  C   C91       1.0  0.51670  0.08080  0.29490  1.0000
  H   H75       1.0  0.52150  0.13640  0.28300  1.0000
  H   H76       1.0  0.55260  0.05070  0.26350  1.0000
  H   H77       1.0  0.52970  0.07240  0.34740  1.0000
  N   N15       1.0  0.74433  0.33986  0.83175  1.0000
  H   H78       1.0  0.70280  0.36930  0.83720  1.0000
  N   N16       1.0  0.86709  0.30334  0.80187  1.0000
  O   O29       1.0  0.61650  0.25360  0.88430  1.0000
  O   O30       1.0  0.69162  0.14450  0.89938  1.0000
  O   O31       1.0  0.83034  0.10238  0.86965  1.0000
  H   H79       1.0  0.78480  0.11600  0.88030  1.0000
  O   O32       1.0  0.93570  0.15400  0.81481  1.0000
  C   C92       1.0  0.68050  0.21597  0.88009  1.0000
  C   C93       1.0  0.74963  0.26068  0.84893  1.0000
  C   C94       1.0  0.82617  0.23873  0.83067  1.0000
  C   C95       1.0  0.86740  0.16136  0.83776  1.0000
  C   C96       1.0  0.81616  0.36413  0.80453  1.0000
  C   C97       1.0  0.83489  0.44706  0.78476  1.0000
  C   C98       1.0  0.77654  0.49956  0.76006  1.0000
  H   H80       1.0  0.72440  0.48210  0.75340  1.0000
  C   C99       1.0  0.79650  0.57835  0.74535  1.0000
  H   H81       1.0  0.75730  0.61320  0.72850  1.0000
  C   C100      1.0  0.87385  0.60633  0.75518  1.0000
  C   C101      1.0  0.93260  0.55392  0.78025  1.0000
  C   C102      1.0  0.91275  0.47421  0.79419  1.0000
  H   H82       1.0  0.95210  0.43890  0.81000  1.0000
  C   C103      1.0  0.89260  0.69281  0.73890  1.0000
  H   H83       1.0  0.84510  0.71950  0.72240  1.0000
  H   H84       1.0  0.93230  0.69600  0.69970  1.0000
  H   H85       1.0  0.91230  0.71780  0.78430  1.0000
  C   C104      1.0  0.01670  0.58080  0.79490  1.0000
  H   H86       1.0  0.02150  0.63640  0.78300  1.0000
  H   H87       1.0  0.05260  0.55070  0.76350  1.0000
  H   H88       1.0  0.02970  0.57240  0.84740  1.0000
  C   C105      1.0  0.32835  0.45350  0.50465  1.0000
  H   H89       1.0  0.36320  0.49270  0.52150  1.0000
  C   C106      1.0  0.35633  0.37615  0.49482  1.0000
  C   C107      1.0  0.30392  0.31740  0.46975  1.0000
  C   C108      1.0  0.22421  0.33725  0.45581  1.0000
  H   H90       1.0  0.18890  0.29790  0.44000  1.0000
  C   C109      1.0  0.44281  0.35740  0.51110  1.0000
  H   H91       1.0  0.46950  0.40490  0.52760  1.0000
  H   H92       1.0  0.44600  0.31770  0.55030  1.0000
  H   H93       1.0  0.46780  0.33770  0.46570  1.0000
  C   C110      1.0  0.33080  0.23330  0.45510  1.0000
  H   H94       1.0  0.38640  0.22850  0.46700  1.0000
  H   H95       1.0  0.30070  0.19740  0.48650  1.0000
  H   H96       1.0  0.32240  0.22030  0.40260  1.0000
  N   N17       1.0  0.08986  0.50567  0.41825  1.0000
  H   H97       1.0  0.11930  0.54720  0.41280  1.0000
  N   N18       1.0  0.05334  0.38291  0.44813  1.0000
  O   O33       1.0  0.00360  0.63350  0.36570  1.0000
  O   O34       1.0  0.89450  0.55838  0.35062  1.0000
  O   O35       1.0  0.85238  0.41966  0.38035  1.0000
  H   H98       1.0  0.86600  0.46520  0.36970  1.0000
  O   O36       1.0  0.90400  0.31430  0.43519  1.0000
  C   C111      1.0  0.96597  0.56950  0.36991  1.0000
  C   C112      1.0  0.01068  0.50037  0.40107  1.0000
  C   C113      1.0  0.98873  0.42383  0.41933  1.0000
  C   C114      1.0  0.91136  0.38260  0.41224  1.0000
  C   C115      1.0  0.11413  0.43384  0.44547  1.0000
  C   C116      1.0  0.19706  0.41511  0.46524  1.0000
  C   C117      1.0  0.24956  0.47346  0.48994  1.0000
  H   H99       1.0  0.23210  0.52560  0.49660  1.0000
  N   N19       1.0  0.58986  0.00567  0.91825  1.0000
  H   H100      1.0  0.61930  0.04720  0.91280  1.0000
  N   N20       1.0  0.55334  0.88291  0.94813  1.0000
  O   O37       1.0  0.50360  0.13350  0.86570  1.0000
  O   O38       1.0  0.39450  0.05838  0.85062  1.0000
  O   O39       1.0  0.35238  0.91966  0.88035  1.0000
  H   H101      1.0  0.36600  0.96520  0.86970  1.0000
  O   O40       1.0  0.40400  0.81430  0.93519  1.0000
  C   C118      1.0  0.46597  0.06950  0.86991  1.0000
  C   C119      1.0  0.51068  0.00037  0.90107  1.0000
  C   C120      1.0  0.48873  0.92383  0.91933  1.0000
  C   C121      1.0  0.41136  0.88260  0.91224  1.0000
  C   C122      1.0  0.61413  0.93384  0.94547  1.0000
  C   C123      1.0  0.69706  0.91511  0.96524  1.0000
  C   C124      1.0  0.74956  0.97346  0.98994  1.0000
  H   H102      1.0  0.73210  0.02560  0.99660  1.0000
  C   C125      1.0  0.82835  0.95350  0.00465  1.0000
  H   H103      1.0  0.86320  0.99270  0.02150  1.0000
  C   C126      1.0  0.85633  0.87615  0.99482  1.0000
  C   C127      1.0  0.80392  0.81740  0.96975  1.0000
  C   C128      1.0  0.72421  0.83725  0.95581  1.0000
  H   H104      1.0  0.68890  0.79790  0.94000  1.0000
  C   C129      1.0  0.94281  0.85740  0.01110  1.0000
  H   H105      1.0  0.96950  0.90490  0.02760  1.0000
  H   H106      1.0  0.94600  0.81770  0.05030  1.0000
  H   H107      1.0  0.96780  0.83770  0.96570  1.0000
  C   C130      1.0  0.83080  0.73330  0.95510  1.0000
  H   H108      1.0  0.88640  0.72850  0.96700  1.0000
  H   H109      1.0  0.80070  0.69740  0.98650  1.0000
  H   H110      1.0  0.82240  0.72030  0.90260  1.0000
  N   N21       1.0  0.41014  0.49433  0.91825  1.0000
  H   H111      1.0  0.38070  0.45280  0.91280  1.0000
  N   N22       1.0  0.44666  0.61709  0.94813  1.0000
  O   O41       1.0  0.49640  0.36650  0.86570  1.0000
  O   O42       1.0  0.60550  0.44162  0.85062  1.0000
  O   O43       1.0  0.64762  0.58034  0.88035  1.0000
  H   H112      1.0  0.63400  0.53480  0.86970  1.0000
  O   O44       1.0  0.59600  0.68570  0.93519  1.0000
  C   C131      1.0  0.53403  0.43050  0.86991  1.0000
  C   C132      1.0  0.48932  0.49963  0.90107  1.0000
  C   C133      1.0  0.51127  0.57617  0.91933  1.0000
  C   C134      1.0  0.58864  0.61740  0.91224  1.0000
  C   C135      1.0  0.38587  0.56616  0.94547  1.0000
  C   C136      1.0  0.30294  0.58489  0.96524  1.0000
  C   C137      1.0  0.25044  0.52654  0.98994  1.0000
  H   H113      1.0  0.26790  0.47440  0.99660  1.0000
  C   C138      1.0  0.17165  0.54650  0.00465  1.0000
  H   H114      1.0  0.13680  0.50730  0.02150  1.0000
  C   C139      1.0  0.14367  0.62385  0.99482  1.0000
  C   C140      1.0  0.19608  0.68260  0.96975  1.0000
  C   C141      1.0  0.27579  0.66275  0.95581  1.0000
  H   H115      1.0  0.31110  0.70210  0.94000  1.0000
  C   C142      1.0  0.05719  0.64260  0.01110  1.0000
  H   H116      1.0  0.03050  0.59510  0.02760  1.0000
  H   H117      1.0  0.05400  0.68230  0.05030  1.0000
  H   H118      1.0  0.03220  0.66230  0.96570  1.0000
  C   C143      1.0  0.16920  0.76670  0.95510  1.0000
  H   H119      1.0  0.11360  0.77150  0.96700  1.0000
  H   H120      1.0  0.19930  0.80260  0.98650  1.0000
  H   H121      1.0  0.17760  0.77970  0.90260  1.0000
  N   N23       1.0  0.91014  0.99433  0.41825  1.0000
  H   H122      1.0  0.88070  0.95280  0.41280  1.0000
  N   N24       1.0  0.94666  0.11709  0.44813  1.0000
  O   O45       1.0  0.99640  0.86650  0.36570  1.0000
  O   O46       1.0  0.10550  0.94162  0.35062  1.0000
  O   O47       1.0  0.14762  0.08034  0.38035  1.0000
  H   H123      1.0  0.13400  0.03480  0.36970  1.0000
  O   O48       1.0  0.09600  0.18570  0.43519  1.0000
  C   C144      1.0  0.03403  0.93050  0.36991  1.0000
  C   C145      1.0  0.98932  0.99963  0.40107  1.0000
  C   C146      1.0  0.01127  0.07617  0.41933  1.0000
  C   C147      1.0  0.08864  0.11740  0.41224  1.0000
  C   C148      1.0  0.88587  0.06616  0.44547  1.0000
  C   C149      1.0  0.80294  0.08489  0.46524  1.0000
  C   C150      1.0  0.75044  0.02654  0.48994  1.0000
  H   H124      1.0  0.76790  0.97440  0.49660  1.0000
  C   C151      1.0  0.67165  0.04650  0.50465  1.0000
  H   H125      1.0  0.63680  0.00730  0.52150  1.0000
  C   C152      1.0  0.64367  0.12385  0.49482  1.0000
  C   C153      1.0  0.69608  0.18260  0.46975  1.0000
  C   C154      1.0  0.77579  0.16275  0.45581  1.0000
  H   H126      1.0  0.81110  0.20210  0.44000  1.0000
  C   C155      1.0  0.55719  0.14260  0.51110  1.0000
  H   H127      1.0  0.53050  0.09510  0.52760  1.0000
  H   H128      1.0  0.55400  0.18230  0.55030  1.0000
  H   H129      1.0  0.53220  0.16230  0.46570  1.0000
  C   C156      1.0  0.66920  0.26670  0.45510  1.0000
  H   H130      1.0  0.61360  0.27150  0.46700  1.0000
  H   H131      1.0  0.69930  0.30260  0.48650  1.0000
  H   H132      1.0  0.67760  0.27970  0.40260  1.0000
  H   H133      1.0  0.93230  0.19600  0.30030  1.0000
  H   H134      1.0  0.91230  0.21780  0.21570  1.0000
  C   C157      1.0  0.01670  0.08080  0.20510  1.0000
  H   H135      1.0  0.02150  0.13640  0.21700  1.0000
  H   H136      1.0  0.05260  0.05070  0.23650  1.0000
  H   H137      1.0  0.02970  0.07240  0.15260  1.0000
  N   N25       1.0  0.74433  0.83986  0.16825  1.0000
  H   H138      1.0  0.70280  0.86930  0.16280  1.0000
  N   N26       1.0  0.86709  0.80334  0.19813  1.0000
  O   O49       1.0  0.61650  0.75360  0.11570  1.0000
  O   O50       1.0  0.69162  0.64450  0.10062  1.0000
  O   O51       1.0  0.83034  0.60238  0.13035  1.0000
  H   H139      1.0  0.78480  0.61600  0.11970  1.0000
  O   O52       1.0  0.93570  0.65400  0.18519  1.0000
  C   C158      1.0  0.68050  0.71597  0.11991  1.0000
  C   C159      1.0  0.74963  0.76068  0.15107  1.0000
  C   C160      1.0  0.82617  0.73873  0.16933  1.0000
  C   C161      1.0  0.86740  0.66136  0.16224  1.0000
  C   C162      1.0  0.81616  0.86413  0.19547  1.0000
  C   C163      1.0  0.83489  0.94706  0.21524  1.0000
  C   C164      1.0  0.77654  0.99956  0.23994  1.0000
  H   H140      1.0  0.72440  0.98210  0.24660  1.0000
  C   C165      1.0  0.79650  0.07835  0.25465  1.0000
  H   H141      1.0  0.75730  0.11320  0.27150  1.0000
  C   C166      1.0  0.87385  0.10633  0.24482  1.0000
  C   C167      1.0  0.93260  0.05392  0.21975  1.0000
  C   C168      1.0  0.91275  0.97421  0.20581  1.0000
  H   H142      1.0  0.95210  0.93890  0.19000  1.0000
  C   C169      1.0  0.89260  0.19281  0.26110  1.0000
  H   H143      1.0  0.84510  0.21950  0.27760  1.0000
  N   N27       1.0  0.24433  0.33986  0.66825  1.0000
  H   H144      1.0  0.20280  0.36930  0.66280  1.0000
  N   N28       1.0  0.36709  0.30334  0.69813  1.0000
  O   O53       1.0  0.11650  0.25360  0.61570  1.0000
  O   O54       1.0  0.19162  0.14450  0.60062  1.0000
  O   O55       1.0  0.33034  0.10238  0.63035  1.0000
  H   H145      1.0  0.28480  0.11600  0.61970  1.0000
  O   O56       1.0  0.43570  0.15400  0.68519  1.0000
  C   C170      1.0  0.18050  0.21597  0.61991  1.0000
  C   C171      1.0  0.24963  0.26068  0.65107  1.0000
  C   C172      1.0  0.32617  0.23873  0.66933  1.0000
  C   C173      1.0  0.36740  0.16136  0.66224  1.0000
  C   C174      1.0  0.31616  0.36413  0.69547  1.0000
  C   C175      1.0  0.33489  0.44706  0.71524  1.0000
  C   C176      1.0  0.27654  0.49956  0.73994  1.0000
  H   H146      1.0  0.22440  0.48210  0.74660  1.0000
  C   C177      1.0  0.29650  0.57835  0.75465  1.0000
  H   H147      1.0  0.25730  0.61320  0.77150  1.0000
  C   C178      1.0  0.37385  0.60633  0.74482  1.0000
  C   C179      1.0  0.43260  0.55392  0.71975  1.0000
  C   C180      1.0  0.41275  0.47421  0.70581  1.0000
  H   H148      1.0  0.45210  0.43890  0.69000  1.0000
  C   C181      1.0  0.39260  0.69281  0.76110  1.0000
  H   H149      1.0  0.34510  0.71950  0.77760  1.0000
  H   H150      1.0  0.43230  0.69600  0.80030  1.0000
  H   H151      1.0  0.41230  0.71780  0.71570  1.0000
  C   C182      1.0  0.51670  0.58080  0.70510  1.0000
  H   H152      1.0  0.52150  0.63640  0.71700  1.0000
  H   H153      1.0  0.55260  0.55070  0.73650  1.0000
  H   H154      1.0  0.52970  0.57240  0.65260  1.0000
  N   N29       1.0  0.75567  0.16014  0.66825  1.0000
  H   H155      1.0  0.79720  0.13070  0.66280  1.0000
  N   N30       1.0  0.63291  0.19666  0.69813  1.0000
  O   O57       1.0  0.88350  0.24640  0.61570  1.0000
  O   O58       1.0  0.80838  0.35550  0.60062  1.0000
  O   O59       1.0  0.66966  0.39762  0.63035  1.0000
  H   H156      1.0  0.71520  0.38400  0.61970  1.0000
  O   O60       1.0  0.56430  0.34600  0.68519  1.0000
  C   C183      1.0  0.81950  0.28403  0.61991  1.0000
  C   C184      1.0  0.75037  0.23932  0.65107  1.0000
  C   C185      1.0  0.67383  0.26127  0.66933  1.0000
  C   C186      1.0  0.63260  0.33864  0.66224  1.0000
  C   C187      1.0  0.68384  0.13587  0.69547  1.0000
  C   C188      1.0  0.66511  0.05294  0.71524  1.0000
  C   C189      1.0  0.72346  0.00044  0.73994  1.0000
  H   H157      1.0  0.77560  0.01790  0.74660  1.0000
  C   C190      1.0  0.70350  0.92165  0.75465  1.0000
  H   H158      1.0  0.74270  0.88680  0.77150  1.0000
  C   C191      1.0  0.62615  0.89367  0.74482  1.0000
  C   C192      1.0  0.56740  0.94608  0.71975  1.0000
  C   C193      1.0  0.58725  0.02579  0.70581  1.0000
  H   H159      1.0  0.54790  0.06110  0.69000  1.0000
  C   C194      1.0  0.60740  0.80719  0.76110  1.0000
  H   H160      1.0  0.65490  0.78050  0.77760  1.0000
  H   H161      1.0  0.56770  0.80400  0.80030  1.0000
  H   H162      1.0  0.58770  0.78220  0.71570  1.0000
  C   C195      1.0  0.48330  0.91920  0.70510  1.0000
  H   H163      1.0  0.47850  0.86360  0.71700  1.0000
  H   H164      1.0  0.44740  0.94930  0.73650  1.0000
  H   H165      1.0  0.47030  0.92760  0.65260  1.0000
  N   N31       1.0  0.25567  0.66014  0.16825  1.0000
  H   H166      1.0  0.29720  0.63070  0.16280  1.0000
  N   N32       1.0  0.13291  0.69666  0.19813  1.0000
  O   O61       1.0  0.38350  0.74640  0.11570  1.0000
  O   O62       1.0  0.30838  0.85550  0.10062  1.0000
  O   O63       1.0  0.16966  0.89762  0.13035  1.0000
  H   H167      1.0  0.21520  0.88400  0.11970  1.0000
  O   O64       1.0  0.06430  0.84600  0.18519  1.0000
  C   C196      1.0  0.31950  0.78403  0.11991  1.0000
  C   C197      1.0  0.25037  0.73932  0.15107  1.0000
  C   C198      1.0  0.17383  0.76127  0.16933  1.0000
  C   C199      1.0  0.13260  0.83864  0.16224  1.0000
  C   C200      1.0  0.18384  0.63587  0.19547  1.0000
  C   C201      1.0  0.16511  0.55294  0.21524  1.0000
  C   C202      1.0  0.22346  0.50044  0.23994  1.0000
  H   H168      1.0  0.27560  0.51790  0.24660  1.0000
  C   C203      1.0  0.20350  0.42165  0.25465  1.0000
  H   H169      1.0  0.24270  0.38680  0.27150  1.0000
  C   C204      1.0  0.12615  0.39367  0.24482  1.0000
  C   C205      1.0  0.06740  0.44608  0.21975  1.0000
  C   C206      1.0  0.08725  0.52579  0.20581  1.0000
  H   H170      1.0  0.04790  0.56110  0.19000  1.0000
  C   C207      1.0  0.10740  0.30719  0.26110  1.0000
  H   H171      1.0  0.15490  0.28050  0.27760  1.0000
  H   H172      1.0  0.06770  0.30400  0.30030  1.0000
  H   H173      1.0  0.08770  0.28220  0.21570  1.0000
  C   C208      1.0  0.98330  0.41920  0.20510  1.0000
  H   H174      1.0  0.97850  0.36360  0.21700  1.0000
  H   H175      1.0  0.94740  0.44930  0.23650  1.0000
  H   H176      1.0  0.97030  0.42760  0.15260  1.0000
  Sr  Sr1       1.0  0.00000  0.75000  0.47656  1.0000
  Sr  Sr2       1.0  0.50000  0.25000  0.97656  1.0000
  Sr  Sr3       1.0  0.00000  0.25000  0.72656  1.0000
  Sr  Sr4       1.0  0.50000  0.75000  0.22656  1.0000
  Sr  Sr5       1.0  0.00000  0.25000  0.52344  1.0000
  Sr  Sr6       1.0  0.50000  0.75000  0.02344  1.0000
  Sr  Sr7       1.0  0.00000  0.75000  0.27344  1.0000
  Sr  Sr8       1.0  0.50000  0.25000  0.77344  1.0000
