data_image0
_chemical_formula_structural       CNC2N4HCNCN4CNC2N4HNC2N4C2NCN4HNC2N4CNC2N4HNC2N5C3N5HC2N5C3N4HCNCN4CNC2N5HC2N4CNC2N5C2HN5C2NCN4HC2N4CN5CNC2N4HC3N4C2NCN5H2C2NC3N13CHC4N8C3NHC2N7CNC2N5HC2N9C3N5C2HZn24
_chemical_formula_sum              "C80 N160 H16 Zn24"
_cell_length_a       14.3715
_cell_length_b       14.3715
_cell_length_c       19.721
_cell_angle_alpha    90
_cell_angle_beta     90
_cell_angle_gamma    90

_space_group_name_H-M_alt    "P 1"
_space_group_IT_number       1

loop_
  _space_group_symop_operation_xyz
  'x, y, z'

loop_
  _atom_site_type_symbol
  _atom_site_label
  _atom_site_symmetry_multiplicity
  _atom_site_fract_x
  _atom_site_fract_y
  _atom_site_fract_z
  _atom_site_occupancy
  C   C1        1.0  0.31700  0.28970  0.40380  1.0000
  N   N1        1.0  0.25310  0.35490  0.41765  1.0000
  C   C2        1.0  0.29600  0.35980  0.30890  1.0000
  C   C3        1.0  0.31380  0.37430  0.23759  1.0000
  N   N2        1.0  0.14740  0.53020  0.30578  1.0000
  N   N3        1.0  0.37300  0.31950  0.20606  1.0000
  N   N4        1.0  0.08020  0.57550  0.39968  1.0000
  N   N5        1.0  0.31730  0.41930  0.13386  1.0000
  H   H1        1.0  0.33970  0.24840  0.43610  1.0000
  C   C4        1.0  0.23890  0.39890  0.35630  1.0000
  N   N6        1.0  0.34520  0.28960  0.33910  1.0000
  C   C5        1.0  0.17340  0.47570  0.35621  1.0000
  N   N7        1.0  0.13280  0.50100  0.41458  1.0000
  N   N8        1.0  0.27790  0.43750  0.19529  1.0000
  N   N9        1.0  0.08900  0.59280  0.33487  1.0000
  N   N10       1.0  0.37340  0.34870  0.14080  1.0000
  C   C6        1.0  0.68300  0.71030  0.40380  1.0000
  N   N11       1.0  0.74690  0.64510  0.41765  1.0000
  C   C7        1.0  0.70400  0.64020  0.30890  1.0000
  C   C8        1.0  0.68620  0.62570  0.23759  1.0000
  N   N12       1.0  0.62700  0.68050  0.20606  1.0000
  N   N13       1.0  0.85260  0.46980  0.30578  1.0000
  N   N14       1.0  0.68270  0.58070  0.13386  1.0000
  N   N15       1.0  0.91980  0.42450  0.39968  1.0000
  H   H2        1.0  0.66030  0.75160  0.43610  1.0000
  N   N16       1.0  0.65480  0.71040  0.33910  1.0000
  C   C9        1.0  0.76110  0.60110  0.35630  1.0000
  C   C10       1.0  0.82660  0.52430  0.35621  1.0000
  N   N17       1.0  0.72210  0.56250  0.19529  1.0000
  N   N18       1.0  0.86720  0.49900  0.41458  1.0000
  N   N19       1.0  0.62660  0.65130  0.14080  1.0000
  N   N20       1.0  0.91100  0.40720  0.33487  1.0000
  C   C11       1.0  0.71030  0.31700  0.90380  1.0000
  C   C12       1.0  0.64020  0.29600  0.80890  1.0000
  N   N21       1.0  0.64510  0.25310  0.91765  1.0000
  C   C13       1.0  0.62570  0.31380  0.73759  1.0000
  N   N22       1.0  0.68050  0.37300  0.70606  1.0000
  N   N23       1.0  0.46980  0.14740  0.80578  1.0000
  N   N24       1.0  0.58070  0.31730  0.63386  1.0000
  N   N25       1.0  0.42450  0.08020  0.89968  1.0000
  H   H3        1.0  0.75160  0.33970  0.93610  1.0000
  N   N26       1.0  0.71040  0.34520  0.83910  1.0000
  C   C14       1.0  0.60110  0.23890  0.85630  1.0000
  C   C15       1.0  0.52430  0.17340  0.85621  1.0000
  N   N27       1.0  0.56250  0.27790  0.69529  1.0000
  N   N28       1.0  0.49900  0.13280  0.91458  1.0000
  N   N29       1.0  0.65130  0.37340  0.64080  1.0000
  N   N30       1.0  0.40720  0.08900  0.83487  1.0000
  C   C16       1.0  0.28970  0.68300  0.90380  1.0000
  N   N31       1.0  0.35490  0.74690  0.91765  1.0000
  C   C17       1.0  0.35980  0.70400  0.80890  1.0000
  C   C18       1.0  0.37430  0.68620  0.73759  1.0000
  N   N32       1.0  0.31950  0.62700  0.70606  1.0000
  N   N33       1.0  0.53020  0.85260  0.80578  1.0000
  N   N34       1.0  0.41930  0.68270  0.63386  1.0000
  N   N35       1.0  0.57550  0.91980  0.89968  1.0000
  H   H4        1.0  0.24840  0.66030  0.93610  1.0000
  N   N36       1.0  0.28960  0.65480  0.83910  1.0000
  C   C19       1.0  0.39890  0.76110  0.85630  1.0000
  C   C20       1.0  0.47570  0.82660  0.85621  1.0000
  N   N37       1.0  0.43750  0.72210  0.69529  1.0000
  N   N38       1.0  0.50100  0.86720  0.91458  1.0000
  N   N39       1.0  0.34870  0.62660  0.64080  1.0000
  N   N40       1.0  0.59280  0.91100  0.83487  1.0000
  N   N41       1.0  0.24690  0.85490  0.58235  1.0000
  C   C21       1.0  0.18300  0.78970  0.59620  1.0000
  C   C22       1.0  0.20400  0.85980  0.69110  1.0000
  C   C23       1.0  0.18620  0.87430  0.76241  1.0000
  N   N42       1.0  0.12700  0.81950  0.79394  1.0000
  N   N43       1.0  0.35260  0.03020  0.69422  1.0000
  N   N44       1.0  0.18270  0.91930  0.86614  1.0000
  N   N45       1.0  0.41980  0.07550  0.60032  1.0000
  N   N46       1.0  0.15480  0.78960  0.66090  1.0000
  H   H5        1.0  0.16030  0.74840  0.56390  1.0000
  C   C24       1.0  0.26110  0.89890  0.64370  1.0000
  C   C25       1.0  0.32660  0.97570  0.64379  1.0000
  N   N47       1.0  0.22210  0.93750  0.80471  1.0000
  N   N48       1.0  0.36720  0.00100  0.58542  1.0000
  N   N49       1.0  0.12660  0.84870  0.85920  1.0000
  N   N50       1.0  0.41100  0.09280  0.66513  1.0000
  N   N51       1.0  0.75310  0.14510  0.58235  1.0000
  C   C26       1.0  0.81700  0.21030  0.59620  1.0000
  C   C27       1.0  0.79600  0.14020  0.69110  1.0000
  C   C28       1.0  0.81380  0.12570  0.76241  1.0000
  N   N52       1.0  0.64740  0.96980  0.69422  1.0000
  N   N53       1.0  0.87300  0.18050  0.79394  1.0000
  N   N54       1.0  0.58020  0.92450  0.60032  1.0000
  N   N55       1.0  0.81730  0.08070  0.86614  1.0000
  H   H6        1.0  0.83970  0.25160  0.56390  1.0000
  C   C29       1.0  0.73890  0.10110  0.64370  1.0000
  N   N56       1.0  0.84520  0.21040  0.66090  1.0000
  C   C30       1.0  0.67340  0.02430  0.64379  1.0000
  N   N57       1.0  0.63280  0.99900  0.58542  1.0000
  N   N58       1.0  0.77790  0.06250  0.80471  1.0000
  N   N59       1.0  0.58900  0.90720  0.66513  1.0000
  N   N60       1.0  0.87340  0.15130  0.85920  1.0000
  C   C31       1.0  0.85980  0.79600  0.19110  1.0000
  N   N61       1.0  0.85490  0.75310  0.08235  1.0000
  C   C32       1.0  0.78970  0.81700  0.09620  1.0000
  C   C33       1.0  0.87430  0.81380  0.26241  1.0000
  N   N62       1.0  0.81950  0.87300  0.29394  1.0000
  N   N63       1.0  0.03020  0.64740  0.19422  1.0000
  N   N64       1.0  0.91930  0.81730  0.36614  1.0000
  N   N65       1.0  0.07550  0.58020  0.10032  1.0000
  N   N66       1.0  0.78960  0.84520  0.16090  1.0000
  H   H7        1.0  0.74840  0.83970  0.06390  1.0000
  C   C34       1.0  0.89890  0.73890  0.14370  1.0000
  C   C35       1.0  0.97570  0.67340  0.14379  1.0000
  N   N67       1.0  0.93750  0.77790  0.30471  1.0000
  N   N68       1.0  0.00100  0.63280  0.08542  1.0000
  N   N69       1.0  0.84870  0.87340  0.35920  1.0000
  N   N70       1.0  0.09280  0.58900  0.16513  1.0000
  C   C36       1.0  0.14020  0.20400  0.19110  1.0000
  N   N71       1.0  0.14510  0.24690  0.08235  1.0000
  C   C37       1.0  0.21030  0.18300  0.09620  1.0000
  C   C38       1.0  0.12570  0.18620  0.26241  1.0000
  N   N72       1.0  0.18050  0.12700  0.29394  1.0000
  N   N73       1.0  0.96980  0.35260  0.19422  1.0000
  N   N74       1.0  0.08070  0.18270  0.36614  1.0000
  N   N75       1.0  0.92450  0.41980  0.10032  1.0000
  N   N76       1.0  0.21040  0.15480  0.16090  1.0000
  C   C39       1.0  0.10110  0.26110  0.14370  1.0000
  C   C40       1.0  0.02430  0.32660  0.14379  1.0000
  H   H8        1.0  0.25160  0.16030  0.06390  1.0000
  N   N77       1.0  0.15130  0.12660  0.35920  1.0000
  N   N78       1.0  0.06250  0.22210  0.30471  1.0000
  N   N79       1.0  0.90720  0.41100  0.16513  1.0000
  N   N80       1.0  0.99900  0.36720  0.08542  1.0000
  N   N81       1.0  0.86720  0.49900  0.58542  1.0000
  C   C41       1.0  0.68300  0.71030  0.59620  1.0000
  C   C42       1.0  0.70400  0.64020  0.69110  1.0000
  N   N82       1.0  0.74690  0.64510  0.58235  1.0000
  C   C43       1.0  0.68620  0.62570  0.76241  1.0000
  N   N83       1.0  0.62700  0.68050  0.79394  1.0000
  N   N84       1.0  0.85260  0.46980  0.69422  1.0000
  N   N85       1.0  0.68270  0.58070  0.86614  1.0000
  N   N86       1.0  0.91980  0.42450  0.60032  1.0000
  H   H9        1.0  0.66030  0.75160  0.56390  1.0000
  C   C44       1.0  0.76110  0.60110  0.64370  1.0000
  C   C45       1.0  0.82660  0.52430  0.64379  1.0000
  N   N87       1.0  0.65480  0.71040  0.66090  1.0000
  N   N88       1.0  0.62660  0.65130  0.85920  1.0000
  N   N89       1.0  0.72210  0.56250  0.80471  1.0000
  N   N90       1.0  0.91100  0.40720  0.66513  1.0000
  C   C46       1.0  0.17340  0.47570  0.64379  1.0000
  N   N91       1.0  0.34520  0.28960  0.66090  1.0000
  N   N92       1.0  0.37340  0.34870  0.85920  1.0000
  N   N93       1.0  0.27790  0.43750  0.80471  1.0000
  N   N94       1.0  0.08900  0.59280  0.66513  1.0000
  N   N95       1.0  0.13280  0.50100  0.58542  1.0000
  C   C47       1.0  0.31700  0.28970  0.59620  1.0000
  N   N96       1.0  0.25310  0.35490  0.58235  1.0000
  C   C48       1.0  0.29600  0.35980  0.69110  1.0000
  C   C49       1.0  0.31380  0.37430  0.76241  1.0000
  N   N97       1.0  0.37300  0.31950  0.79394  1.0000
  N   N98       1.0  0.14740  0.53020  0.69422  1.0000
  N   N99       1.0  0.31730  0.41930  0.86614  1.0000
  N   N100      1.0  0.08020  0.57550  0.60032  1.0000
  H   H10       1.0  0.33970  0.24840  0.56390  1.0000
  C   C50       1.0  0.23890  0.39890  0.64370  1.0000
  C   C51       1.0  0.39890  0.76110  0.14370  1.0000
  C   C52       1.0  0.47570  0.82660  0.14379  1.0000
  N   N101      1.0  0.28960  0.65480  0.16090  1.0000
  N   N102      1.0  0.34870  0.62660  0.35920  1.0000
  N   N103      1.0  0.43750  0.72210  0.30471  1.0000
  N   N104      1.0  0.59280  0.91100  0.16513  1.0000
  C   C53       1.0  0.28970  0.68300  0.09620  1.0000
  C   C54       1.0  0.35980  0.70400  0.19110  1.0000
  N   N105      1.0  0.35490  0.74690  0.08235  1.0000
  C   C55       1.0  0.37430  0.68620  0.26241  1.0000
  N   N106      1.0  0.31950  0.62700  0.29394  1.0000
  N   N107      1.0  0.50100  0.86720  0.08542  1.0000
  N   N108      1.0  0.53020  0.85260  0.19422  1.0000
  N   N109      1.0  0.41930  0.68270  0.36614  1.0000
  N   N110      1.0  0.57550  0.91980  0.10032  1.0000
  H   H11       1.0  0.24840  0.66030  0.06390  1.0000
  H   H12       1.0  0.75160  0.33970  0.06390  1.0000
  C   C56       1.0  0.60110  0.23890  0.14370  1.0000
  C   C57       1.0  0.52430  0.17340  0.14379  1.0000
  N   N111      1.0  0.64510  0.25310  0.08235  1.0000
  C   C58       1.0  0.71030  0.31700  0.09620  1.0000
  C   C59       1.0  0.64020  0.29600  0.19110  1.0000
  C   C60       1.0  0.62570  0.31380  0.26241  1.0000
  N   N112      1.0  0.68050  0.37300  0.29394  1.0000
  N   N113      1.0  0.56250  0.27790  0.30471  1.0000
  N   N114      1.0  0.46980  0.14740  0.19422  1.0000
  N   N115      1.0  0.49900  0.13280  0.08542  1.0000
  N   N116      1.0  0.65130  0.37340  0.35920  1.0000
  N   N117      1.0  0.58070  0.31730  0.36614  1.0000
  N   N118      1.0  0.40720  0.08900  0.16513  1.0000
  N   N119      1.0  0.71040  0.34520  0.16090  1.0000
  N   N120      1.0  0.42450  0.08020  0.10032  1.0000
  N   N121      1.0  0.87300  0.18050  0.20606  1.0000
  N   N122      1.0  0.81730  0.08070  0.13386  1.0000
  N   N123      1.0  0.58020  0.92450  0.39968  1.0000
  N   N124      1.0  0.75310  0.14510  0.41765  1.0000
  C   C61       1.0  0.81700  0.21030  0.40380  1.0000
  H   H13       1.0  0.83970  0.25160  0.43610  1.0000
  C   C62       1.0  0.73890  0.10110  0.35630  1.0000
  C   C63       1.0  0.79600  0.14020  0.30890  1.0000
  C   C64       1.0  0.67340  0.02430  0.35621  1.0000
  C   C65       1.0  0.81380  0.12570  0.23759  1.0000
  N   N125      1.0  0.64740  0.96980  0.30578  1.0000
  N   N126      1.0  0.63280  0.99900  0.41458  1.0000
  N   N127      1.0  0.77790  0.06250  0.19529  1.0000
  N   N128      1.0  0.58900  0.90720  0.33487  1.0000
  N   N129      1.0  0.87340  0.15130  0.14080  1.0000
  N   N130      1.0  0.84520  0.21040  0.33910  1.0000
  N   N131      1.0  0.18270  0.91930  0.13386  1.0000
  N   N132      1.0  0.24690  0.85490  0.41765  1.0000
  C   C66       1.0  0.18300  0.78970  0.40380  1.0000
  C   C67       1.0  0.20400  0.85980  0.30890  1.0000
  C   C68       1.0  0.18620  0.87430  0.23759  1.0000
  N   N133      1.0  0.35260  0.03020  0.30578  1.0000
  H   H14       1.0  0.16030  0.74840  0.43610  1.0000
  C   C69       1.0  0.26110  0.89890  0.35630  1.0000
  C   C70       1.0  0.32660  0.97570  0.35621  1.0000
  N   N134      1.0  0.12700  0.81950  0.20606  1.0000
  N   N135      1.0  0.41980  0.07550  0.39968  1.0000
  N   N136      1.0  0.22210  0.93750  0.19529  1.0000
  N   N137      1.0  0.41100  0.09280  0.33487  1.0000
  N   N138      1.0  0.36720  0.00100  0.41458  1.0000
  N   N139      1.0  0.12660  0.84870  0.14080  1.0000
  N   N140      1.0  0.15480  0.78960  0.33910  1.0000
  C   C71       1.0  0.14020  0.20400  0.80890  1.0000
  N   N141      1.0  0.14510  0.24690  0.91765  1.0000
  C   C72       1.0  0.21030  0.18300  0.90380  1.0000
  C   C73       1.0  0.12570  0.18620  0.73759  1.0000
  N   N142      1.0  0.18050  0.12700  0.70606  1.0000
  N   N143      1.0  0.96980  0.35260  0.80578  1.0000
  N   N144      1.0  0.99900  0.36720  0.91458  1.0000
  N   N145      1.0  0.08070  0.18270  0.63386  1.0000
  N   N146      1.0  0.92450  0.41980  0.89968  1.0000
  H   H15       1.0  0.25160  0.16030  0.93610  1.0000
  C   C74       1.0  0.10110  0.26110  0.85630  1.0000
  C   C75       1.0  0.02430  0.32660  0.85621  1.0000
  N   N147      1.0  0.15130  0.12660  0.64080  1.0000
  N   N148      1.0  0.06250  0.22210  0.69529  1.0000
  N   N149      1.0  0.90720  0.41100  0.83487  1.0000
  N   N150      1.0  0.21040  0.15480  0.83910  1.0000
  N   N151      1.0  0.84870  0.87340  0.64080  1.0000
  N   N152      1.0  0.93750  0.77790  0.69529  1.0000
  N   N153      1.0  0.09280  0.58900  0.83487  1.0000
  N   N154      1.0  0.00100  0.63280  0.91458  1.0000
  N   N155      1.0  0.85490  0.75310  0.91765  1.0000
  C   C76       1.0  0.85980  0.79600  0.80890  1.0000
  C   C77       1.0  0.78970  0.81700  0.90380  1.0000
  C   C78       1.0  0.87430  0.81380  0.73759  1.0000
  N   N156      1.0  0.81950  0.87300  0.70606  1.0000
  N   N157      1.0  0.03020  0.64740  0.80578  1.0000
  N   N158      1.0  0.91930  0.81730  0.63386  1.0000
  N   N159      1.0  0.07550  0.58020  0.89968  1.0000
  N   N160      1.0  0.78960  0.84520  0.83910  1.0000
  C   C79       1.0  0.89890  0.73890  0.85630  1.0000
  C   C80       1.0  0.97570  0.67340  0.85621  1.0000
  H   H16       1.0  0.74840  0.83970  0.93610  1.0000
  Zn  Zn1       1.0  0.21814  0.55904  0.21569  1.0000
  Zn  Zn2       1.0  0.78186  0.44096  0.21569  1.0000
  Zn  Zn3       1.0  0.44096  0.21814  0.71569  1.0000
  Zn  Zn4       1.0  0.55904  0.78186  0.71569  1.0000
  Zn  Zn5       1.0  0.28186  0.05904  0.78431  1.0000
  Zn  Zn6       1.0  0.71814  0.94096  0.78431  1.0000
  Zn  Zn7       1.0  0.05904  0.71814  0.28431  1.0000
  Zn  Zn8       1.0  0.94096  0.28186  0.28431  1.0000
  Zn  Zn9       1.0  0.78186  0.44096  0.78431  1.0000
  Zn  Zn10      1.0  0.21814  0.55904  0.78431  1.0000
  Zn  Zn11      1.0  0.55904  0.78186  0.28431  1.0000
  Zn  Zn12      1.0  0.44096  0.21814  0.28431  1.0000
  Zn  Zn13      1.0  0.71814  0.94096  0.21569  1.0000
  Zn  Zn14      1.0  0.28186  0.05904  0.21569  1.0000
  Zn  Zn15      1.0  0.94096  0.28186  0.71569  1.0000
  Zn  Zn16      1.0  0.05904  0.71814  0.71569  1.0000
  Zn  Zn17      1.0  0.18293  0.41230  0.50000  1.0000
  Zn  Zn18      1.0  0.81707  0.58770  0.50000  1.0000
  Zn  Zn19      1.0  0.58770  0.18293  0.00000  1.0000
  Zn  Zn20      1.0  0.41230  0.81707  0.00000  1.0000
  Zn  Zn21      1.0  0.31707  0.91230  0.50000  1.0000
  Zn  Zn22      1.0  0.68293  0.08770  0.50000  1.0000
  Zn  Zn23      1.0  0.91230  0.68293  0.00000  1.0000
  Zn  Zn24      1.0  0.08770  0.31707  0.00000  1.0000
