data_image0
_chemical_formula_structural       O4C2NC4HCHCHCH2CHCHCHCHCHO4C2NC4HCHCHCH2CHCHCHCHCHO4C2NC4HCHCHCH2CHCHCHCHCHO4C2NC4HCHCHCH2CHCHCHCHCHCHCHCH2CHCHCHCHCHO4C2NC4HO4C2NC4HCHCHCH2CHCHCHCHCHO4C2NC4HCHCHCH2CHCHCHCHCHO4C2NC4HCHCHCH2CHCHCHCHCHCe4
_chemical_formula_sum              "O32 C112 N8 H80 Ce4"
_cell_length_a       20.0073
_cell_length_b       20.9035
_cell_length_c       8.9515
_cell_angle_alpha    90
_cell_angle_beta     113.186
_cell_angle_gamma    90

_space_group_name_H-M_alt    "P 1"
_space_group_IT_number       1

loop_
  _space_group_symop_operation_xyz
  'x, y, z'

loop_
  _atom_site_type_symbol
  _atom_site_label
  _atom_site_symmetry_multiplicity
  _atom_site_fract_x
  _atom_site_fract_y
  _atom_site_fract_z
  _atom_site_occupancy
  O   O1        1.0  0.08209  0.02950  0.12606  1.0000
  O   O2        1.0  0.12669  0.04767  0.93884  1.0000
  O   O3        1.0  0.44011  0.41663  0.58664  1.0000
  O   O4        1.0  0.47122  0.39302  0.37808  1.0000
  C   C1        1.0  0.45211  0.37850  0.49130  1.0000
  C   C2        1.0  0.44168  0.30826  0.51440  1.0000
  N   N1        1.0  0.33968  0.08897  0.44970  1.0000
  C   C3        1.0  0.13246  0.04431  0.08360  1.0000
  C   C4        1.0  0.20591  0.05976  0.21410  1.0000
  C   C5        1.0  0.42417  0.17882  0.55740  1.0000
  C   C6        1.0  0.41092  0.28781  0.62090  1.0000
  H   H1        1.0  0.39620  0.31760  0.67890  1.0000
  C   C7        1.0  0.40210  0.22333  0.64060  1.0000
  H   H2        1.0  0.38100  0.21000  0.71110  1.0000
  C   C8        1.0  0.46508  0.26333  0.43330  1.0000
  H   H3        1.0  0.48660  0.27650  0.36330  1.0000
  C   C9        1.0  0.41250  0.10846  0.57400  1.0000
  H   H4        1.0  0.41470  0.09950  0.68220  1.0000
  H   H5        1.0  0.45050  0.08410  0.55830  1.0000
  C   C10       1.0  0.21322  0.07337  0.37040  1.0000
  H   H6        1.0  0.17280  0.07220  0.39730  1.0000
  C   C11       1.0  0.45677  0.19853  0.45530  1.0000
  H   H7        1.0  0.47320  0.16840  0.40120  1.0000
  C   C12       1.0  0.26743  0.06032  0.17830  1.0000
  H   H8        1.0  0.26350  0.05130  0.07350  1.0000
  C   C13       1.0  0.28066  0.08870  0.48700  1.0000
  H   H9        1.0  0.28540  0.09890  0.59180  1.0000
  C   C14       1.0  0.33410  0.07432  0.29840  1.0000
  H   H10       1.0  0.37550  0.07370  0.27520  1.0000
  O   O5        1.0  0.58209  0.52950  0.12606  1.0000
  O   O6        1.0  0.62669  0.54767  0.93884  1.0000
  O   O7        1.0  0.94011  0.91663  0.58664  1.0000
  O   O8        1.0  0.97122  0.89302  0.37808  1.0000
  C   C15       1.0  0.95211  0.87850  0.49130  1.0000
  C   C16       1.0  0.94168  0.80826  0.51440  1.0000
  N   N2        1.0  0.83968  0.58897  0.44970  1.0000
  C   C17       1.0  0.63246  0.54431  0.08360  1.0000
  C   C18       1.0  0.70591  0.55976  0.21410  1.0000
  C   C19       1.0  0.92417  0.67882  0.55740  1.0000
  C   C20       1.0  0.91092  0.78781  0.62090  1.0000
  H   H11       1.0  0.89620  0.81760  0.67890  1.0000
  C   C21       1.0  0.90210  0.72333  0.64060  1.0000
  H   H12       1.0  0.88100  0.71000  0.71110  1.0000
  C   C22       1.0  0.96508  0.76333  0.43330  1.0000
  H   H13       1.0  0.98660  0.77650  0.36330  1.0000
  C   C23       1.0  0.91250  0.60846  0.57400  1.0000
  H   H14       1.0  0.91470  0.59950  0.68220  1.0000
  H   H15       1.0  0.95050  0.58410  0.55830  1.0000
  C   C24       1.0  0.71322  0.57337  0.37040  1.0000
  H   H16       1.0  0.67280  0.57220  0.39730  1.0000
  C   C25       1.0  0.95677  0.69853  0.45530  1.0000
  H   H17       1.0  0.97320  0.66840  0.40120  1.0000
  C   C26       1.0  0.76743  0.56032  0.17830  1.0000
  H   H18       1.0  0.76350  0.55130  0.07350  1.0000
  C   C27       1.0  0.78066  0.58870  0.48700  1.0000
  H   H19       1.0  0.78540  0.59890  0.59180  1.0000
  C   C28       1.0  0.83410  0.57432  0.29840  1.0000
  H   H20       1.0  0.87550  0.57370  0.27520  1.0000
  O   O9        1.0  0.91791  0.02950  0.37394  1.0000
  O   O10       1.0  0.87331  0.04767  0.56116  1.0000
  O   O11       1.0  0.55989  0.41663  0.91336  1.0000
  O   O12       1.0  0.52878  0.39302  0.12192  1.0000
  C   C29       1.0  0.54789  0.37850  0.00870  1.0000
  C   C30       1.0  0.55832  0.30826  0.98560  1.0000
  N   N3        1.0  0.66032  0.08897  0.05030  1.0000
  C   C31       1.0  0.86754  0.04431  0.41640  1.0000
  C   C32       1.0  0.79409  0.05976  0.28590  1.0000
  C   C33       1.0  0.57583  0.17882  0.94260  1.0000
  C   C34       1.0  0.58908  0.28781  0.87910  1.0000
  H   H21       1.0  0.60380  0.31760  0.82110  1.0000
  C   C35       1.0  0.59790  0.22333  0.85940  1.0000
  H   H22       1.0  0.61900  0.21000  0.78890  1.0000
  C   C36       1.0  0.53492  0.26333  0.06670  1.0000
  H   H23       1.0  0.51340  0.27650  0.13670  1.0000
  C   C37       1.0  0.58750  0.10846  0.92600  1.0000
  H   H24       1.0  0.58530  0.09950  0.81780  1.0000
  H   H25       1.0  0.54950  0.08410  0.94170  1.0000
  C   C38       1.0  0.78678  0.07337  0.12960  1.0000
  H   H26       1.0  0.82720  0.07220  0.10270  1.0000
  C   C39       1.0  0.54323  0.19853  0.04470  1.0000
  H   H27       1.0  0.52680  0.16840  0.09880  1.0000
  C   C40       1.0  0.73257  0.06032  0.32170  1.0000
  H   H28       1.0  0.73650  0.05130  0.42650  1.0000
  C   C41       1.0  0.71934  0.08870  0.01300  1.0000
  H   H29       1.0  0.71460  0.09890  0.90820  1.0000
  C   C42       1.0  0.66590  0.07432  0.20160  1.0000
  H   H30       1.0  0.62450  0.07370  0.22480  1.0000
  O   O13       1.0  0.41791  0.52950  0.37394  1.0000
  O   O14       1.0  0.37331  0.54767  0.56116  1.0000
  O   O15       1.0  0.05989  0.91663  0.91336  1.0000
  O   O16       1.0  0.02878  0.89302  0.12192  1.0000
  C   C43       1.0  0.04789  0.87850  0.00870  1.0000
  C   C44       1.0  0.05832  0.80826  0.98560  1.0000
  N   N4        1.0  0.16032  0.58897  0.05030  1.0000
  C   C45       1.0  0.36754  0.54431  0.41640  1.0000
  C   C46       1.0  0.29409  0.55976  0.28590  1.0000
  C   C47       1.0  0.07583  0.67882  0.94260  1.0000
  C   C48       1.0  0.08908  0.78781  0.87910  1.0000
  H   H31       1.0  0.10380  0.81760  0.82110  1.0000
  C   C49       1.0  0.09790  0.72333  0.85940  1.0000
  H   H32       1.0  0.11900  0.71000  0.78890  1.0000
  C   C50       1.0  0.03492  0.76333  0.06670  1.0000
  H   H33       1.0  0.01340  0.77650  0.13670  1.0000
  C   C51       1.0  0.08750  0.60846  0.92600  1.0000
  H   H34       1.0  0.08530  0.59950  0.81780  1.0000
  H   H35       1.0  0.04950  0.58410  0.94170  1.0000
  C   C52       1.0  0.28678  0.57337  0.12960  1.0000
  H   H36       1.0  0.32720  0.57220  0.10270  1.0000
  C   C53       1.0  0.04323  0.69853  0.04470  1.0000
  H   H37       1.0  0.02680  0.66840  0.09880  1.0000
  C   C54       1.0  0.23257  0.56032  0.32170  1.0000
  H   H38       1.0  0.23650  0.55130  0.42650  1.0000
  C   C55       1.0  0.21934  0.58870  0.01300  1.0000
  H   H39       1.0  0.21460  0.59890  0.90820  1.0000
  C   C56       1.0  0.16590  0.57432  0.20160  1.0000
  H   H40       1.0  0.12450  0.57370  0.22480  1.0000
  C   C57       1.0  0.59790  0.77667  0.35940  1.0000
  H   H41       1.0  0.61900  0.79000  0.28890  1.0000
  C   C58       1.0  0.53492  0.73667  0.56670  1.0000
  H   H42       1.0  0.51340  0.72350  0.63670  1.0000
  C   C59       1.0  0.58750  0.89154  0.42600  1.0000
  H   H43       1.0  0.58530  0.90050  0.31780  1.0000
  H   H44       1.0  0.54950  0.91590  0.44170  1.0000
  C   C60       1.0  0.78678  0.92663  0.62960  1.0000
  H   H45       1.0  0.82720  0.92780  0.60270  1.0000
  C   C61       1.0  0.54323  0.80147  0.54470  1.0000
  H   H46       1.0  0.52680  0.83160  0.59880  1.0000
  C   C62       1.0  0.73257  0.93968  0.82170  1.0000
  H   H47       1.0  0.73650  0.94870  0.92650  1.0000
  C   C63       1.0  0.71934  0.91130  0.51300  1.0000
  H   H48       1.0  0.71460  0.90110  0.40820  1.0000
  C   C64       1.0  0.66590  0.92568  0.70160  1.0000
  H   H49       1.0  0.62450  0.92630  0.72480  1.0000
  O   O17       1.0  0.91791  0.97050  0.87394  1.0000
  O   O18       1.0  0.87331  0.95233  0.06116  1.0000
  O   O19       1.0  0.55989  0.58337  0.41336  1.0000
  O   O20       1.0  0.52878  0.60698  0.62192  1.0000
  C   C65       1.0  0.54789  0.62150  0.50870  1.0000
  C   C66       1.0  0.55832  0.69174  0.48560  1.0000
  N   N5        1.0  0.66032  0.91103  0.55030  1.0000
  C   C67       1.0  0.86754  0.95569  0.91640  1.0000
  C   C68       1.0  0.79409  0.94024  0.78590  1.0000
  C   C69       1.0  0.57583  0.82118  0.44260  1.0000
  C   C70       1.0  0.58908  0.71219  0.37910  1.0000
  H   H50       1.0  0.60380  0.68240  0.32110  1.0000
  O   O21       1.0  0.41791  0.47050  0.87394  1.0000
  O   O22       1.0  0.37331  0.45233  0.06116  1.0000
  O   O23       1.0  0.05989  0.08337  0.41336  1.0000
  O   O24       1.0  0.02878  0.10698  0.62192  1.0000
  C   C71       1.0  0.04789  0.12150  0.50870  1.0000
  C   C72       1.0  0.05832  0.19174  0.48560  1.0000
  N   N6        1.0  0.16032  0.41103  0.55030  1.0000
  C   C73       1.0  0.36754  0.45569  0.91640  1.0000
  C   C74       1.0  0.29409  0.44024  0.78590  1.0000
  C   C75       1.0  0.07583  0.32118  0.44260  1.0000
  C   C76       1.0  0.08908  0.21219  0.37910  1.0000
  H   H51       1.0  0.10380  0.18240  0.32110  1.0000
  C   C77       1.0  0.09790  0.27667  0.35940  1.0000
  H   H52       1.0  0.11900  0.29000  0.28890  1.0000
  C   C78       1.0  0.03492  0.23667  0.56670  1.0000
  H   H53       1.0  0.01340  0.22350  0.63670  1.0000
  C   C79       1.0  0.08750  0.39154  0.42600  1.0000
  H   H54       1.0  0.08530  0.40050  0.31780  1.0000
  H   H55       1.0  0.04950  0.41590  0.44170  1.0000
  C   C80       1.0  0.28678  0.42663  0.62960  1.0000
  H   H56       1.0  0.32720  0.42780  0.60270  1.0000
  C   C81       1.0  0.04323  0.30147  0.54470  1.0000
  H   H57       1.0  0.02680  0.33160  0.59880  1.0000
  C   C82       1.0  0.23257  0.43968  0.82170  1.0000
  H   H58       1.0  0.23650  0.44870  0.92650  1.0000
  C   C83       1.0  0.21934  0.41130  0.51300  1.0000
  H   H59       1.0  0.21460  0.40110  0.40820  1.0000
  C   C84       1.0  0.16590  0.42568  0.70160  1.0000
  H   H60       1.0  0.12450  0.42630  0.72480  1.0000
  O   O25       1.0  0.08209  0.97050  0.62606  1.0000
  O   O26       1.0  0.12669  0.95233  0.43884  1.0000
  O   O27       1.0  0.44011  0.58337  0.08664  1.0000
  O   O28       1.0  0.47122  0.60698  0.87808  1.0000
  C   C85       1.0  0.45211  0.62150  0.99130  1.0000
  C   C86       1.0  0.44168  0.69174  0.01440  1.0000
  N   N7        1.0  0.33968  0.91103  0.94970  1.0000
  C   C87       1.0  0.13246  0.95569  0.58360  1.0000
  C   C88       1.0  0.20591  0.94024  0.71410  1.0000
  C   C89       1.0  0.42417  0.82118  0.05740  1.0000
  C   C90       1.0  0.41092  0.71219  0.12090  1.0000
  H   H61       1.0  0.39620  0.68240  0.17890  1.0000
  C   C91       1.0  0.40210  0.77667  0.14060  1.0000
  H   H62       1.0  0.38100  0.79000  0.21110  1.0000
  C   C92       1.0  0.46508  0.73667  0.93330  1.0000
  H   H63       1.0  0.48660  0.72350  0.86330  1.0000
  C   C93       1.0  0.41250  0.89154  0.07400  1.0000
  H   H64       1.0  0.41470  0.90050  0.18220  1.0000
  H   H65       1.0  0.45050  0.91590  0.05830  1.0000
  C   C94       1.0  0.21322  0.92663  0.87040  1.0000
  H   H66       1.0  0.17280  0.92780  0.89730  1.0000
  C   C95       1.0  0.45677  0.80147  0.95530  1.0000
  H   H67       1.0  0.47320  0.83160  0.90120  1.0000
  C   C96       1.0  0.26743  0.93968  0.67830  1.0000
  H   H68       1.0  0.26350  0.94870  0.57350  1.0000
  C   C97       1.0  0.28066  0.91130  0.98700  1.0000
  H   H69       1.0  0.28540  0.90110  0.09180  1.0000
  C   C98       1.0  0.33410  0.92568  0.79840  1.0000
  H   H70       1.0  0.37550  0.92630  0.77520  1.0000
  O   O29       1.0  0.58209  0.47050  0.62606  1.0000
  O   O30       1.0  0.62669  0.45233  0.43884  1.0000
  O   O31       1.0  0.94011  0.08337  0.08664  1.0000
  O   O32       1.0  0.97122  0.10698  0.87808  1.0000
  C   C99       1.0  0.95211  0.12150  0.99130  1.0000
  C   C100      1.0  0.94168  0.19174  0.01440  1.0000
  N   N8        1.0  0.83968  0.41103  0.94970  1.0000
  C   C101      1.0  0.63246  0.45569  0.58360  1.0000
  C   C102      1.0  0.70591  0.44024  0.71410  1.0000
  C   C103      1.0  0.92417  0.32118  0.05740  1.0000
  C   C104      1.0  0.91092  0.21219  0.12090  1.0000
  H   H71       1.0  0.89620  0.18240  0.17890  1.0000
  C   C105      1.0  0.90210  0.27667  0.14060  1.0000
  H   H72       1.0  0.88100  0.29000  0.21110  1.0000
  C   C106      1.0  0.96508  0.23667  0.93330  1.0000
  H   H73       1.0  0.98660  0.22350  0.86330  1.0000
  C   C107      1.0  0.91250  0.39154  0.07400  1.0000
  H   H74       1.0  0.91470  0.40050  0.18220  1.0000
  H   H75       1.0  0.95050  0.41590  0.05830  1.0000
  C   C108      1.0  0.71322  0.42663  0.87040  1.0000
  H   H76       1.0  0.67280  0.42780  0.89730  1.0000
  C   C109      1.0  0.95677  0.30147  0.95530  1.0000
  H   H77       1.0  0.97320  0.33160  0.90120  1.0000
  C   C110      1.0  0.76743  0.43968  0.67830  1.0000
  H   H78       1.0  0.76350  0.44870  0.57350  1.0000
  C   C111      1.0  0.78066  0.41130  0.98700  1.0000
  H   H79       1.0  0.78540  0.40110  0.09180  1.0000
  C   C112      1.0  0.83410  0.42568  0.79840  1.0000
  H   H80       1.0  0.87550  0.42630  0.77520  1.0000
  Ce  Ce1       1.0  0.50000  0.51168  0.75000  1.0000
  Ce  Ce2       1.0  0.00000  0.01168  0.75000  1.0000
  Ce  Ce3       1.0  0.50000  0.48832  0.25000  1.0000
  Ce  Ce4       1.0  0.00000  0.98832  0.25000  1.0000
