data_image0
_chemical_formula_structural       O2CNC3H2CHCHCHCHCHCHCHO2C3HO2CNC3H2CHCHCHCHCHCHCHO2C3HO2CNC3H2CHCHCHCHCHCHCHO2C3HO2CNC3H2CHCHCHCHCHCHCHO2C3HCNC3H2CHCHCHCHCHCHCHO2C3HO4CNC3H2CHCHCHCHCHCHCHO2C3HOH2O2HOHOHOHCe2
_chemical_formula_sum              "O30 C84 N6 H66 Ce2"
_cell_length_a       15.9104
_cell_length_b       15.9104
_cell_length_c       14.7913
_cell_angle_alpha    90
_cell_angle_beta     90
_cell_angle_gamma    120

_space_group_name_H-M_alt    "P 1"
_space_group_IT_number       1

loop_
  _space_group_symop_operation_xyz
  'x, y, z'

loop_
  _atom_site_type_symbol
  _atom_site_label
  _atom_site_symmetry_multiplicity
  _atom_site_fract_x
  _atom_site_fract_y
  _atom_site_fract_z
  _atom_site_occupancy
  O   O1        1.0  0.37460  0.78950  0.12240  1.0000
  O   O2        1.0  0.26000  0.82530  0.08780  1.0000
  C   C1        1.0  0.38630  0.86850  0.98350  1.0000
  N   N1        1.0  0.48090  0.95760  0.66190  1.0000
  C   C2        1.0  0.32930  0.82150  0.07250  1.0000
  C   C3        1.0  0.48670  0.96170  0.82940  1.0000
  C   C4        1.0  0.53910  0.01070  0.74250  1.0000
  H   H1        1.0  0.55120  0.07680  0.74140  1.0000
  H   H2        1.0  0.60120  0.01310  0.74060  1.0000
  C   C5        1.0  0.40890  0.96990  0.85600  1.0000
  H   H3        1.0  0.38970  0.00680  0.82230  1.0000
  C   C6        1.0  0.35830  0.92240  0.93450  1.0000
  H   H4        1.0  0.30540  0.92780  0.95310  1.0000
  C   C7        1.0  0.46320  0.85920  0.95180  1.0000
  H   H5        1.0  0.48410  0.82360  0.98540  1.0000
  C   C8        1.0  0.50280  0.89950  0.61980  1.0000
  H   H6        1.0  0.55090  0.88820  0.64210  1.0000
  C   C9        1.0  0.41860  0.98090  0.62650  1.0000
  H   H7        1.0  0.40960  0.02800  0.65490  1.0000
  C   C10       1.0  0.50590  0.89800  0.87780  1.0000
  H   H8        1.0  0.55170  0.88340  0.85520  1.0000
  C   C11       1.0  0.36770  0.93840  0.55060  1.0000
  H   H9        1.0  0.32150  0.95330  0.53000  1.0000
  O   O3        1.0  0.37260  0.79020  0.36690  1.0000
  O   O4        1.0  0.25710  0.82670  0.39320  1.0000
  C   C12       1.0  0.38410  0.87150  0.50240  1.0000
  C   C13       1.0  0.33960  0.82800  0.41520  1.0000
  C   C14       1.0  0.45010  0.85140  0.53550  1.0000
  H   H10       1.0  0.46300  0.80750  0.50590  1.0000
  O   O5        1.0  0.21050  0.58510  0.12240  1.0000
  O   O6        1.0  0.17470  0.43470  0.08780  1.0000
  C   C15       1.0  0.13150  0.51780  0.98350  1.0000
  N   N2        1.0  0.04240  0.52330  0.66190  1.0000
  C   C16       1.0  0.17850  0.50780  0.07250  1.0000
  C   C17       1.0  0.03830  0.52500  0.82940  1.0000
  C   C18       1.0  0.98930  0.52840  0.74250  1.0000
  H   H11       1.0  0.92320  0.47440  0.74140  1.0000
  H   H12       1.0  0.98690  0.58810  0.74060  1.0000
  C   C19       1.0  0.03010  0.43900  0.85600  1.0000
  H   H13       1.0  0.99320  0.38290  0.82230  1.0000
  C   C20       1.0  0.07760  0.43590  0.93450  1.0000
  H   H14       1.0  0.07220  0.37760  0.95310  1.0000
  C   C21       1.0  0.14080  0.60400  0.95180  1.0000
  H   H15       1.0  0.17640  0.66050  0.98540  1.0000
  C   C22       1.0  0.10050  0.60330  0.61980  1.0000
  H   H16       1.0  0.11180  0.66270  0.64210  1.0000
  C   C23       1.0  0.01910  0.43770  0.62650  1.0000
  H   H17       1.0  0.97200  0.38160  0.65490  1.0000
  C   C24       1.0  0.10200  0.60790  0.87780  1.0000
  H   H18       1.0  0.11660  0.66830  0.85520  1.0000
  C   C25       1.0  0.06160  0.42930  0.55060  1.0000
  H   H19       1.0  0.04670  0.36820  0.53000  1.0000
  O   O7        1.0  0.20980  0.58240  0.36690  1.0000
  O   O8        1.0  0.17330  0.43040  0.39320  1.0000
  C   C26       1.0  0.12850  0.51260  0.50240  1.0000
  C   C27       1.0  0.17200  0.51160  0.41520  1.0000
  C   C28       1.0  0.14860  0.59870  0.53550  1.0000
  H   H20       1.0  0.19250  0.65550  0.50590  1.0000
  O   O9        1.0  0.41490  0.62540  0.12240  1.0000
  O   O10       1.0  0.56530  0.74000  0.08780  1.0000
  C   C29       1.0  0.48220  0.61370  0.98350  1.0000
  N   N3        1.0  0.47670  0.51910  0.66190  1.0000
  C   C30       1.0  0.49220  0.67070  0.07250  1.0000
  C   C31       1.0  0.47500  0.51330  0.82940  1.0000
  C   C32       1.0  0.47160  0.46090  0.74250  1.0000
  H   H21       1.0  0.52560  0.44880  0.74140  1.0000
  H   H22       1.0  0.41190  0.39880  0.74060  1.0000
  C   C33       1.0  0.56100  0.59110  0.85600  1.0000
  H   H23       1.0  0.61710  0.61030  0.82230  1.0000
  C   C34       1.0  0.56410  0.64170  0.93450  1.0000
  H   H24       1.0  0.62240  0.69460  0.95310  1.0000
  C   C35       1.0  0.39600  0.53680  0.95180  1.0000
  H   H25       1.0  0.33950  0.51590  0.98540  1.0000
  C   C36       1.0  0.39670  0.49720  0.61980  1.0000
  H   H26       1.0  0.33730  0.44910  0.64210  1.0000
  C   C37       1.0  0.56230  0.58140  0.62650  1.0000
  H   H27       1.0  0.61840  0.59040  0.65490  1.0000
  C   C38       1.0  0.39210  0.49410  0.87780  1.0000
  H   H28       1.0  0.33170  0.44830  0.85520  1.0000
  C   C39       1.0  0.57070  0.63230  0.55060  1.0000
  H   H29       1.0  0.63180  0.67850  0.53000  1.0000
  O   O11       1.0  0.41760  0.62740  0.36690  1.0000
  O   O12       1.0  0.56960  0.74290  0.39320  1.0000
  C   C40       1.0  0.48740  0.61590  0.50240  1.0000
  C   C41       1.0  0.48840  0.66040  0.41520  1.0000
  C   C42       1.0  0.40130  0.54990  0.53550  1.0000
  H   H30       1.0  0.34450  0.53700  0.50590  1.0000
  O   O13       1.0  0.62540  0.21050  0.62240  1.0000
  O   O14       1.0  0.74000  0.17470  0.58780  1.0000
  C   C43       1.0  0.61370  0.13150  0.48350  1.0000
  N   N4        1.0  0.51910  0.04240  0.16190  1.0000
  C   C44       1.0  0.67070  0.17850  0.57250  1.0000
  C   C45       1.0  0.51330  0.03830  0.32940  1.0000
  C   C46       1.0  0.46090  0.98930  0.24250  1.0000
  H   H31       1.0  0.44880  0.92320  0.24140  1.0000
  H   H32       1.0  0.39880  0.98690  0.24060  1.0000
  C   C47       1.0  0.59110  0.03010  0.35600  1.0000
  H   H33       1.0  0.61030  0.99320  0.32230  1.0000
  C   C48       1.0  0.64170  0.07760  0.43450  1.0000
  H   H34       1.0  0.69460  0.07220  0.45310  1.0000
  C   C49       1.0  0.53680  0.14080  0.45180  1.0000
  H   H35       1.0  0.51590  0.17640  0.48540  1.0000
  C   C50       1.0  0.49720  0.10050  0.11980  1.0000
  H   H36       1.0  0.44910  0.11180  0.14210  1.0000
  C   C51       1.0  0.58140  0.01910  0.12650  1.0000
  H   H37       1.0  0.59040  0.97200  0.15490  1.0000
  C   C52       1.0  0.49410  0.10200  0.37780  1.0000
  H   H38       1.0  0.44830  0.11660  0.35520  1.0000
  C   C53       1.0  0.63230  0.06160  0.05060  1.0000
  H   H39       1.0  0.67850  0.04670  0.03000  1.0000
  O   O15       1.0  0.62740  0.20980  0.86690  1.0000
  O   O16       1.0  0.74290  0.17330  0.89320  1.0000
  C   C54       1.0  0.61590  0.12850  0.00240  1.0000
  C   C55       1.0  0.66040  0.17200  0.91520  1.0000
  C   C56       1.0  0.54990  0.14860  0.03550  1.0000
  H   H40       1.0  0.53700  0.19250  0.00590  1.0000
  C   C57       1.0  0.86850  0.48220  0.48350  1.0000
  N   N5        1.0  0.95760  0.47670  0.16190  1.0000
  C   C58       1.0  0.82150  0.49220  0.57250  1.0000
  C   C59       1.0  0.96170  0.47500  0.32940  1.0000
  C   C60       1.0  0.01070  0.47160  0.24250  1.0000
  H   H41       1.0  0.07680  0.52560  0.24140  1.0000
  H   H42       1.0  0.01310  0.41190  0.24060  1.0000
  C   C61       1.0  0.96990  0.56100  0.35600  1.0000
  H   H43       1.0  0.00680  0.61710  0.32230  1.0000
  C   C62       1.0  0.92240  0.56410  0.43450  1.0000
  H   H44       1.0  0.92780  0.62240  0.45310  1.0000
  C   C63       1.0  0.85920  0.39600  0.45180  1.0000
  H   H45       1.0  0.82360  0.33950  0.48540  1.0000
  C   C64       1.0  0.89950  0.39670  0.11980  1.0000
  H   H46       1.0  0.88820  0.33730  0.14210  1.0000
  C   C65       1.0  0.98090  0.56230  0.12650  1.0000
  H   H47       1.0  0.02800  0.61840  0.15490  1.0000
  C   C66       1.0  0.89800  0.39210  0.37780  1.0000
  H   H48       1.0  0.88340  0.33170  0.35520  1.0000
  C   C67       1.0  0.93840  0.57070  0.05060  1.0000
  H   H49       1.0  0.95330  0.63180  0.03000  1.0000
  O   O17       1.0  0.79020  0.41760  0.86690  1.0000
  O   O18       1.0  0.82670  0.56960  0.89320  1.0000
  C   C68       1.0  0.87150  0.48740  0.00240  1.0000
  C   C69       1.0  0.82800  0.48840  0.91520  1.0000
  C   C70       1.0  0.85140  0.40130  0.03550  1.0000
  H   H50       1.0  0.80750  0.34450  0.00590  1.0000
  O   O19       1.0  0.78950  0.41490  0.62240  1.0000
  O   O20       1.0  0.82530  0.56530  0.58780  1.0000
  O   O21       1.0  0.58510  0.37460  0.62240  1.0000
  O   O22       1.0  0.43470  0.26000  0.58780  1.0000
  C   C71       1.0  0.51780  0.38630  0.48350  1.0000
  N   N6        1.0  0.52330  0.48090  0.16190  1.0000
  C   C72       1.0  0.50780  0.32930  0.57250  1.0000
  C   C73       1.0  0.52500  0.48670  0.32940  1.0000
  C   C74       1.0  0.52840  0.53910  0.24250  1.0000
  H   H51       1.0  0.47440  0.55120  0.24140  1.0000
  H   H52       1.0  0.58810  0.60120  0.24060  1.0000
  C   C75       1.0  0.43900  0.40890  0.35600  1.0000
  H   H53       1.0  0.38290  0.38970  0.32230  1.0000
  C   C76       1.0  0.43590  0.35830  0.43450  1.0000
  H   H54       1.0  0.37760  0.30540  0.45310  1.0000
  C   C77       1.0  0.60400  0.46320  0.45180  1.0000
  H   H55       1.0  0.66050  0.48410  0.48540  1.0000
  C   C78       1.0  0.60330  0.50280  0.11980  1.0000
  H   H56       1.0  0.66270  0.55090  0.14210  1.0000
  C   C79       1.0  0.43770  0.41860  0.12650  1.0000
  H   H57       1.0  0.38160  0.40960  0.15490  1.0000
  C   C80       1.0  0.60790  0.50590  0.37780  1.0000
  H   H58       1.0  0.66830  0.55170  0.35520  1.0000
  C   C81       1.0  0.42930  0.36770  0.05060  1.0000
  H   H59       1.0  0.36820  0.32150  0.03000  1.0000
  O   O23       1.0  0.58240  0.37260  0.86690  1.0000
  O   O24       1.0  0.43040  0.25710  0.89320  1.0000
  C   C82       1.0  0.51260  0.38410  0.00240  1.0000
  C   C83       1.0  0.51160  0.33960  0.91520  1.0000
  C   C84       1.0  0.59870  0.45010  0.03550  1.0000
  H   H60       1.0  0.65550  0.46300  0.00590  1.0000
  O   O25       1.0  0.28484  0.48457  0.24300  1.0000
  H   H61       1.0  0.24920  0.45690  0.28610  1.0000
  H   H62       1.0  0.54310  0.79230  0.28610  1.0000
  O   O26       1.0  0.51543  0.80027  0.24300  1.0000
  O   O27       1.0  0.19973  0.71516  0.24300  1.0000
  H   H63       1.0  0.20770  0.75080  0.28610  1.0000
  O   O28       1.0  0.71516  0.51543  0.74300  1.0000
  H   H64       1.0  0.75080  0.54310  0.78610  1.0000
  O   O29       1.0  0.48457  0.19973  0.74300  1.0000
  H   H65       1.0  0.45690  0.20770  0.78610  1.0000
  O   O30       1.0  0.80027  0.28484  0.74300  1.0000
  H   H66       1.0  0.79230  0.24920  0.78610  1.0000
  Ce  Ce1       1.0  0.33333  0.66667  0.24420  1.0000
  Ce  Ce2       1.0  0.66667  0.33333  0.74420  1.0000
