data_image0
_chemical_formula_structural       PH2O2PH2O2HOPHO3PH3OPOHPH2O2PH2O2HOPHOPH2O2HO2PH3O2P2H2O2POH2OPH2O2PH2O2PH2O3PH2O2PH2O3PH2PH2O2HOHPOPH2O2PH2O2HOHPO3PH3O2PHPH2O2PH2O2Gd8PH2O2PH2O2HOPHO3PH3OPOHPH2O2PH2O2HOPHOPH2O2HO2PH3O2P2H2O2POH2OPH2O2PH2O2PH2O3PH2O2PH2O3PH2PH2O2HOHPOPH2O2PH2O2HOHPO3PH3O2PHPH2O2PH2O2Gd8
_chemical_formula_sum              "P56 H112 O112 Gd16"
_cell_length_a       10.956
_cell_length_b       15.2382
_cell_length_c       26.854
_cell_angle_alpha    90
_cell_angle_beta     90
_cell_angle_gamma    90

_space_group_name_H-M_alt    "P 1"
_space_group_IT_number       1

loop_
  _space_group_symop_operation_xyz
  'x, y, z'

loop_
  _atom_site_type_symbol
  _atom_site_label
  _atom_site_symmetry_multiplicity
  _atom_site_fract_x
  _atom_site_fract_y
  _atom_site_fract_z
  _atom_site_occupancy
  P   P1        1.0  0.60014  0.13660  0.61282  1.0000
  H   H1        1.0  0.62903  0.15383  0.64553  1.0000
  H   H2        1.0  0.61523  0.18374  0.58932  1.0000
  O   O1        1.0  0.67480  0.05805  0.59610  1.0000
  O   O2        1.0  0.46560  0.12370  0.61600  1.0000
  P   P2        1.0  0.94031  0.23520  0.65375  1.0000
  H   H3        1.0  0.93773  0.25761  0.68754  1.0000
  H   H4        1.0  0.90747  0.17612  0.65307  1.0000
  O   O3        1.0  0.85840  0.29190  0.62290  1.0000
  O   O4        1.0  0.07310  0.23045  0.63840  1.0000
  H   H5        1.0  0.36686  0.17549  0.49300  1.0000
  O   O5        1.0  0.24250  0.14560  0.54619  1.0000
  P   P3        1.0  0.31570  0.12500  0.50000  1.0000
  H   H6        1.0  0.36686  0.07451  0.50700  1.0000
  O   O6        1.0  0.24250  0.10440  0.45381  1.0000
  O   O7        1.0  0.30630  0.26410  0.70180  1.0000
  O   O8        1.0  0.30630  0.26410  0.79820  1.0000
  P   P4        1.0  0.24780  0.28955  0.75000  1.0000
  H   H7        1.0  0.24116  0.35306  0.75000  1.0000
  H   H8        1.0  0.16673  0.26394  0.75000  1.0000
  H   H9        1.0  0.40464  0.00681  0.75000  1.0000
  O   O9        1.0  0.29960  0.07585  0.70290  1.0000
  P   P5        1.0  0.36920  0.06515  0.75000  1.0000
  O   O10       1.0  0.29960  0.07585  0.79710  1.0000
  H   H10       1.0  0.43385  0.10862  0.75000  1.0000
  P   P6        1.0  0.39986  0.36340  0.11282  1.0000
  H   H11       1.0  0.37097  0.34617  0.14553  1.0000
  H   H12       1.0  0.38477  0.31626  0.08932  1.0000
  O   O11       1.0  0.32520  0.44195  0.09610  1.0000
  O   O12       1.0  0.53440  0.37630  0.11600  1.0000
  P   P7        1.0  0.05969  0.26480  0.15375  1.0000
  H   H13       1.0  0.06227  0.24239  0.18754  1.0000
  H   H14       1.0  0.09253  0.32388  0.15307  1.0000
  O   O13       1.0  0.14160  0.20810  0.12290  1.0000
  O   O14       1.0  0.92690  0.26955  0.13840  1.0000
  H   H15       1.0  0.63314  0.42549  0.00700  1.0000
  O   O15       1.0  0.75750  0.39560  0.95381  1.0000
  P   P8        1.0  0.68430  0.37500  0.00000  1.0000
  H   H16       1.0  0.63314  0.32451  0.99300  1.0000
  O   O16       1.0  0.75750  0.35440  0.04619  1.0000
  P   P9        1.0  0.75220  0.21045  0.25000  1.0000
  H   H17       1.0  0.75884  0.14695  0.25000  1.0000
  H   H18       1.0  0.83327  0.23606  0.25000  1.0000
  O   O17       1.0  0.69370  0.23590  0.29820  1.0000
  O   O18       1.0  0.69370  0.23590  0.20180  1.0000
  H   H19       1.0  0.56615  0.39139  0.25000  1.0000
  O   O19       1.0  0.70040  0.42415  0.29710  1.0000
  O   O20       1.0  0.70040  0.42415  0.20290  1.0000
  P   P10       1.0  0.63080  0.43485  0.25000  1.0000
  H   H20       1.0  0.59536  0.49319  0.25000  1.0000
  H   H21       1.0  0.37097  0.40384  0.85447  1.0000
  H   H22       1.0  0.38477  0.43374  0.91068  1.0000
  O   O21       1.0  0.32520  0.30805  0.90390  1.0000
  O   O22       1.0  0.53440  0.37370  0.88400  1.0000
  P   P11       1.0  0.39986  0.38660  0.88718  1.0000
  P   P12       1.0  0.05969  0.48520  0.84625  1.0000
  H   H23       1.0  0.06227  0.00761  0.81246  1.0000
  H   H24       1.0  0.09253  0.42612  0.84693  1.0000
  O   O23       1.0  0.14160  0.04190  0.87710  1.0000
  O   O24       1.0  0.92690  0.48045  0.86160  1.0000
  P   P13       1.0  0.75220  0.03955  0.75000  1.0000
  O   O25       1.0  0.69370  0.01410  0.79820  1.0000
  H   H25       1.0  0.83327  0.01394  0.75000  1.0000
  H   H26       1.0  0.75884  0.10305  0.75000  1.0000
  O   O26       1.0  0.69370  0.01410  0.70180  1.0000
  P   P14       1.0  0.63080  0.31515  0.75000  1.0000
  H   H27       1.0  0.59536  0.25681  0.75000  1.0000
  H   H28       1.0  0.56615  0.35862  0.75000  1.0000
  O   O27       1.0  0.70040  0.32585  0.79710  1.0000
  O   O28       1.0  0.70040  0.32585  0.70290  1.0000
  P   P15       1.0  0.60014  0.11340  0.38718  1.0000
  H   H29       1.0  0.62903  0.09617  0.35447  1.0000
  H   H30       1.0  0.61523  0.06626  0.41068  1.0000
  O   O29       1.0  0.67480  0.19195  0.40390  1.0000
  O   O30       1.0  0.46560  0.12630  0.38400  1.0000
  P   P16       1.0  0.94031  0.01480  0.34625  1.0000
  H   H31       1.0  0.93773  0.49239  0.31246  1.0000
  H   H32       1.0  0.90747  0.07388  0.34693  1.0000
  O   O31       1.0  0.85840  0.45810  0.37710  1.0000
  O   O32       1.0  0.07310  0.01955  0.36160  1.0000
  O   O33       1.0  0.30630  0.48590  0.20180  1.0000
  P   P17       1.0  0.24780  0.46045  0.25000  1.0000
  H   H33       1.0  0.24116  0.39695  0.25000  1.0000
  H   H34       1.0  0.16673  0.48606  0.25000  1.0000
  O   O34       1.0  0.30630  0.48590  0.29820  1.0000
  O   O35       1.0  0.29960  0.17415  0.20290  1.0000
  P   P18       1.0  0.36920  0.18485  0.25000  1.0000
  H   H35       1.0  0.40464  0.24319  0.25000  1.0000
  H   H36       1.0  0.43385  0.14139  0.25000  1.0000
  O   O36       1.0  0.29960  0.17415  0.29710  1.0000
  O   O37       1.0  0.32520  0.44195  0.40390  1.0000
  O   O38       1.0  0.53440  0.37630  0.38400  1.0000
  P   P19       1.0  0.39986  0.36340  0.38718  1.0000
  H   H37       1.0  0.37097  0.34617  0.35447  1.0000
  H   H38       1.0  0.38477  0.31626  0.41068  1.0000
  P   P20       1.0  0.05969  0.26480  0.34625  1.0000
  H   H39       1.0  0.06227  0.24239  0.31246  1.0000
  H   H40       1.0  0.09253  0.32388  0.34693  1.0000
  O   O39       1.0  0.14160  0.20810  0.37710  1.0000
  O   O40       1.0  0.92690  0.26955  0.36160  1.0000
  H   H41       1.0  0.63314  0.32451  0.50700  1.0000
  O   O41       1.0  0.75750  0.35440  0.45381  1.0000
  H   H42       1.0  0.63314  0.42549  0.49300  1.0000
  P   P21       1.0  0.68430  0.37500  0.50000  1.0000
  O   O42       1.0  0.75750  0.39560  0.54619  1.0000
  P   P22       1.0  0.60014  0.13660  0.88718  1.0000
  H   H43       1.0  0.62903  0.15383  0.85447  1.0000
  H   H44       1.0  0.61523  0.18374  0.91068  1.0000
  O   O43       1.0  0.67480  0.05805  0.90390  1.0000
  O   O44       1.0  0.46560  0.12370  0.88400  1.0000
  P   P23       1.0  0.94031  0.23520  0.84625  1.0000
  H   H45       1.0  0.93773  0.25761  0.81246  1.0000
  H   H46       1.0  0.90747  0.17612  0.84693  1.0000
  O   O45       1.0  0.85840  0.29190  0.87710  1.0000
  O   O46       1.0  0.07310  0.23045  0.86160  1.0000
  H   H47       1.0  0.36686  0.07451  0.99300  1.0000
  O   O47       1.0  0.24250  0.10440  0.04619  1.0000
  H   H48       1.0  0.36686  0.17549  0.00700  1.0000
  P   P24       1.0  0.31570  0.12500  0.00000  1.0000
  O   O48       1.0  0.24250  0.14560  0.95381  1.0000
  O   O49       1.0  0.67480  0.19195  0.09610  1.0000
  O   O50       1.0  0.46560  0.12630  0.11600  1.0000
  P   P25       1.0  0.60014  0.11340  0.11282  1.0000
  H   H49       1.0  0.62903  0.09617  0.14553  1.0000
  H   H50       1.0  0.61523  0.06626  0.08932  1.0000
  H   H51       1.0  0.90747  0.07388  0.15307  1.0000
  O   O51       1.0  0.85840  0.45810  0.12290  1.0000
  O   O52       1.0  0.07310  0.01955  0.13840  1.0000
  P   P26       1.0  0.94031  0.01480  0.15375  1.0000
  H   H52       1.0  0.93773  0.49239  0.18754  1.0000
  P   P27       1.0  0.39986  0.38660  0.61282  1.0000
  H   H53       1.0  0.37097  0.40384  0.64553  1.0000
  H   H54       1.0  0.38477  0.43374  0.58932  1.0000
  O   O53       1.0  0.32520  0.30805  0.59610  1.0000
  O   O54       1.0  0.53440  0.37370  0.61600  1.0000
  P   P28       1.0  0.05969  0.48520  0.65375  1.0000
  H   H55       1.0  0.06227  0.00761  0.68754  1.0000
  H   H56       1.0  0.09253  0.42612  0.65307  1.0000
  O   O55       1.0  0.14160  0.04190  0.62290  1.0000
  O   O56       1.0  0.92690  0.48045  0.63840  1.0000
  Gd  Gd1       1.0  0.26811  0.16789  0.63342  1.0000
  Gd  Gd2       1.0  0.73189  0.41789  0.63342  1.0000
  Gd  Gd3       1.0  0.26811  0.16789  0.86658  1.0000
  Gd  Gd4       1.0  0.26811  0.08211  0.36658  1.0000
  Gd  Gd5       1.0  0.73189  0.33212  0.13342  1.0000
  Gd  Gd6       1.0  0.26811  0.08211  0.13342  1.0000
  Gd  Gd7       1.0  0.73189  0.33212  0.36658  1.0000
  Gd  Gd8       1.0  0.73189  0.41789  0.86658  1.0000
  P   P29       1.0  0.60014  0.63660  0.61282  1.0000
  H   H57       1.0  0.62903  0.65384  0.64553  1.0000
  H   H58       1.0  0.61523  0.68374  0.58932  1.0000
  O   O57       1.0  0.67480  0.55805  0.59610  1.0000
  O   O58       1.0  0.46560  0.62370  0.61600  1.0000
  P   P30       1.0  0.94031  0.73520  0.65375  1.0000
  H   H59       1.0  0.93773  0.75761  0.68754  1.0000
  H   H60       1.0  0.90747  0.67612  0.65307  1.0000
  O   O59       1.0  0.85840  0.79190  0.62290  1.0000
  O   O60       1.0  0.07310  0.73045  0.63840  1.0000
  H   H61       1.0  0.36686  0.67549  0.49300  1.0000
  O   O61       1.0  0.24250  0.64560  0.54619  1.0000
  P   P31       1.0  0.31570  0.62500  0.50000  1.0000
  H   H62       1.0  0.36686  0.57451  0.50700  1.0000
  O   O62       1.0  0.24250  0.60440  0.45381  1.0000
  O   O63       1.0  0.30630  0.76410  0.70180  1.0000
  O   O64       1.0  0.30630  0.76410  0.79820  1.0000
  P   P32       1.0  0.24780  0.78955  0.75000  1.0000
  H   H63       1.0  0.24116  0.85306  0.75000  1.0000
  H   H64       1.0  0.16673  0.76394  0.75000  1.0000
  H   H65       1.0  0.40464  0.50681  0.75000  1.0000
  O   O65       1.0  0.29960  0.57585  0.70290  1.0000
  P   P33       1.0  0.36920  0.56515  0.75000  1.0000
  O   O66       1.0  0.29960  0.57585  0.79710  1.0000
  H   H66       1.0  0.43385  0.60862  0.75000  1.0000
  P   P34       1.0  0.39986  0.86340  0.11282  1.0000
  H   H67       1.0  0.37097  0.84617  0.14553  1.0000
  H   H68       1.0  0.38477  0.81626  0.08932  1.0000
  O   O67       1.0  0.32520  0.94195  0.09610  1.0000
  O   O68       1.0  0.53440  0.87630  0.11600  1.0000
  P   P35       1.0  0.05969  0.76480  0.15375  1.0000
  H   H69       1.0  0.06227  0.74239  0.18754  1.0000
  H   H70       1.0  0.09253  0.82388  0.15307  1.0000
  O   O69       1.0  0.14160  0.70810  0.12290  1.0000
  O   O70       1.0  0.92690  0.76955  0.13840  1.0000
  H   H71       1.0  0.63314  0.92549  0.00700  1.0000
  O   O71       1.0  0.75750  0.89560  0.95381  1.0000
  P   P36       1.0  0.68430  0.87500  0.00000  1.0000
  H   H72       1.0  0.63314  0.82451  0.99300  1.0000
  O   O72       1.0  0.75750  0.85440  0.04619  1.0000
  P   P37       1.0  0.75220  0.71045  0.25000  1.0000
  H   H73       1.0  0.75884  0.64695  0.25000  1.0000
  H   H74       1.0  0.83327  0.73606  0.25000  1.0000
  O   O73       1.0  0.69370  0.73590  0.29820  1.0000
  O   O74       1.0  0.69370  0.73590  0.20180  1.0000
  H   H75       1.0  0.56615  0.89139  0.25000  1.0000
  O   O75       1.0  0.70040  0.92415  0.29710  1.0000
  O   O76       1.0  0.70040  0.92415  0.20290  1.0000
  P   P38       1.0  0.63080  0.93485  0.25000  1.0000
  H   H76       1.0  0.59536  0.99319  0.25000  1.0000
  H   H77       1.0  0.37097  0.90384  0.85447  1.0000
  H   H78       1.0  0.38477  0.93374  0.91068  1.0000
  O   O77       1.0  0.32520  0.80805  0.90390  1.0000
  O   O78       1.0  0.53440  0.87370  0.88400  1.0000
  P   P39       1.0  0.39986  0.88660  0.88718  1.0000
  P   P40       1.0  0.05969  0.98520  0.84625  1.0000
  H   H79       1.0  0.06227  0.50761  0.81246  1.0000
  H   H80       1.0  0.09253  0.92612  0.84693  1.0000
  O   O79       1.0  0.14160  0.54190  0.87710  1.0000
  O   O80       1.0  0.92690  0.98045  0.86160  1.0000
  P   P41       1.0  0.75220  0.53955  0.75000  1.0000
  O   O81       1.0  0.69370  0.51410  0.79820  1.0000
  H   H81       1.0  0.83327  0.51394  0.75000  1.0000
  H   H82       1.0  0.75884  0.60306  0.75000  1.0000
  O   O82       1.0  0.69370  0.51410  0.70180  1.0000
  P   P42       1.0  0.63080  0.81515  0.75000  1.0000
  H   H83       1.0  0.59536  0.75681  0.75000  1.0000
  H   H84       1.0  0.56615  0.85862  0.75000  1.0000
  O   O83       1.0  0.70040  0.82585  0.79710  1.0000
  O   O84       1.0  0.70040  0.82585  0.70290  1.0000
  P   P43       1.0  0.60014  0.61340  0.38718  1.0000
  H   H85       1.0  0.62903  0.59617  0.35447  1.0000
  H   H86       1.0  0.61523  0.56626  0.41068  1.0000
  O   O85       1.0  0.67480  0.69195  0.40390  1.0000
  O   O86       1.0  0.46560  0.62630  0.38400  1.0000
  P   P44       1.0  0.94031  0.51480  0.34625  1.0000
  H   H87       1.0  0.93773  0.99239  0.31246  1.0000
  H   H88       1.0  0.90747  0.57388  0.34693  1.0000
  O   O87       1.0  0.85840  0.95810  0.37710  1.0000
  O   O88       1.0  0.07310  0.51955  0.36160  1.0000
  O   O89       1.0  0.30630  0.98590  0.20180  1.0000
  P   P45       1.0  0.24780  0.96045  0.25000  1.0000
  H   H89       1.0  0.24116  0.89695  0.25000  1.0000
  H   H90       1.0  0.16673  0.98606  0.25000  1.0000
  O   O90       1.0  0.30630  0.98590  0.29820  1.0000
  O   O91       1.0  0.29960  0.67415  0.20290  1.0000
  P   P46       1.0  0.36920  0.68485  0.25000  1.0000
  H   H91       1.0  0.40464  0.74319  0.25000  1.0000
  H   H92       1.0  0.43385  0.64139  0.25000  1.0000
  O   O92       1.0  0.29960  0.67415  0.29710  1.0000
  O   O93       1.0  0.32520  0.94195  0.40390  1.0000
  O   O94       1.0  0.53440  0.87630  0.38400  1.0000
  P   P47       1.0  0.39986  0.86340  0.38718  1.0000
  H   H93       1.0  0.37097  0.84617  0.35447  1.0000
  H   H94       1.0  0.38477  0.81626  0.41068  1.0000
  P   P48       1.0  0.05969  0.76480  0.34625  1.0000
  H   H95       1.0  0.06227  0.74239  0.31246  1.0000
  H   H96       1.0  0.09253  0.82388  0.34693  1.0000
  O   O95       1.0  0.14160  0.70810  0.37710  1.0000
  O   O96       1.0  0.92690  0.76955  0.36160  1.0000
  H   H97       1.0  0.63314  0.82451  0.50700  1.0000
  O   O97       1.0  0.75750  0.85440  0.45381  1.0000
  H   H98       1.0  0.63314  0.92549  0.49300  1.0000
  P   P49       1.0  0.68430  0.87500  0.50000  1.0000
  O   O98       1.0  0.75750  0.89560  0.54619  1.0000
  P   P50       1.0  0.60014  0.63660  0.88718  1.0000
  H   H99       1.0  0.62903  0.65384  0.85447  1.0000
  H   H100      1.0  0.61523  0.68374  0.91068  1.0000
  O   O99       1.0  0.67480  0.55805  0.90390  1.0000
  O   O100      1.0  0.46560  0.62370  0.88400  1.0000
  P   P51       1.0  0.94031  0.73520  0.84625  1.0000
  H   H101      1.0  0.93773  0.75761  0.81246  1.0000
  H   H102      1.0  0.90747  0.67612  0.84693  1.0000
  O   O101      1.0  0.85840  0.79190  0.87710  1.0000
  O   O102      1.0  0.07310  0.73045  0.86160  1.0000
  H   H103      1.0  0.36686  0.57451  0.99300  1.0000
  O   O103      1.0  0.24250  0.60440  0.04619  1.0000
  H   H104      1.0  0.36686  0.67549  0.00700  1.0000
  P   P52       1.0  0.31570  0.62500  0.00000  1.0000
  O   O104      1.0  0.24250  0.64560  0.95381  1.0000
  O   O105      1.0  0.67480  0.69195  0.09610  1.0000
  O   O106      1.0  0.46560  0.62630  0.11600  1.0000
  P   P53       1.0  0.60014  0.61340  0.11282  1.0000
  H   H105      1.0  0.62903  0.59617  0.14553  1.0000
  H   H106      1.0  0.61523  0.56626  0.08932  1.0000
  H   H107      1.0  0.90747  0.57388  0.15307  1.0000
  O   O107      1.0  0.85840  0.95810  0.12290  1.0000
  O   O108      1.0  0.07310  0.51955  0.13840  1.0000
  P   P54       1.0  0.94031  0.51480  0.15375  1.0000
  H   H108      1.0  0.93773  0.99239  0.18754  1.0000
  P   P55       1.0  0.39986  0.88660  0.61282  1.0000
  H   H109      1.0  0.37097  0.90384  0.64553  1.0000
  H   H110      1.0  0.38477  0.93374  0.58932  1.0000
  O   O109      1.0  0.32520  0.80805  0.59610  1.0000
  O   O110      1.0  0.53440  0.87370  0.61600  1.0000
  P   P56       1.0  0.05969  0.98520  0.65375  1.0000
  H   H111      1.0  0.06227  0.50761  0.68754  1.0000
  H   H112      1.0  0.09253  0.92612  0.65307  1.0000
  O   O111      1.0  0.14160  0.54190  0.62290  1.0000
  O   O112      1.0  0.92690  0.98045  0.63840  1.0000
  Gd  Gd9       1.0  0.26811  0.66789  0.63342  1.0000
  Gd  Gd10      1.0  0.73189  0.91789  0.63342  1.0000
  Gd  Gd11      1.0  0.26811  0.66789  0.86658  1.0000
  Gd  Gd12      1.0  0.26811  0.58211  0.36658  1.0000
  Gd  Gd13      1.0  0.73189  0.83212  0.13342  1.0000
  Gd  Gd14      1.0  0.26811  0.58211  0.13342  1.0000
  Gd  Gd15      1.0  0.73189  0.83212  0.36658  1.0000
  Gd  Gd16      1.0  0.73189  0.91789  0.86658  1.0000
