data_image0
_chemical_formula_structural       O3C2O2CO3CO3COC2O3CO4CO3CCe4O3C2O2CO3CO3COC2O3CO4CO3CCe4
_chemical_formula_sum              "O44 C20 Ce8"
_cell_length_a       12.66
_cell_length_b       8.742
_cell_length_c       12.993
_cell_angle_alpha    105.57
_cell_angle_beta     90.451
_cell_angle_gamma    105.192

_space_group_name_H-M_alt    "P 1"
_space_group_IT_number       1

loop_
  _space_group_symop_operation_xyz
  'x, y, z'

loop_
  _atom_site_type_symbol
  _atom_site_label
  _atom_site_symmetry_multiplicity
  _atom_site_fract_x
  _atom_site_fract_y
  _atom_site_fract_z
  _atom_site_occupancy
  O   O1        1.0  0.41475  0.97150  0.10320  1.0000
  O   O2        1.0  0.00920  0.79950  0.94480  1.0000
  O   O3        1.0  0.49080  0.20050  0.05520  1.0000
  C   C1        1.0  0.02740  0.95050  0.95420  1.0000
  C   C2        1.0  0.47260  0.04950  0.04580  1.0000
  O   O4        1.0  0.08525  0.02850  0.89680  1.0000
  O   O5        1.0  0.24600  0.61370  0.93220  1.0000
  C   C3        1.0  0.22855  0.69570  0.86970  1.0000
  O   O6        1.0  0.11690  0.68070  0.71620  1.0000
  O   O7        1.0  0.27865  0.83820  0.87290  1.0000
  O   O8        1.0  0.08275  0.45860  0.77570  1.0000
  C   C4        1.0  0.13340  0.60130  0.78020  1.0000
  O   O9        1.0  0.15685  0.85070  0.54480  1.0000
  O   O10       1.0  0.17730  0.87160  0.38000  1.0000
  O   O11       1.0  0.34315  0.14930  0.45520  1.0000
  C   C5        1.0  0.20215  0.92060  0.47870  1.0000
  O   O12       1.0  0.32270  0.12840  0.62000  1.0000
  C   C6        1.0  0.29785  0.07940  0.52130  1.0000
  C   C7        1.0  0.27145  0.30430  0.13030  1.0000
  O   O13       1.0  0.38310  0.31930  0.28380  1.0000
  O   O14       1.0  0.22135  0.16180  0.12710  1.0000
  O   O15       1.0  0.41725  0.54140  0.22430  1.0000
  C   C8        1.0  0.36660  0.39870  0.21980  1.0000
  O   O16       1.0  0.25400  0.38630  0.06780  1.0000
  O   O17       1.0  0.39825  0.16840  0.83900  1.0000
  O   O18       1.0  0.25640  0.26810  0.84000  1.0000
  O   O19       1.0  0.42030  0.43160  0.92410  1.0000
  C   C9        1.0  0.35645  0.29100  0.86940  1.0000
  O   O20       1.0  0.10175  0.83160  0.16100  1.0000
  O   O21       1.0  0.24360  0.73190  0.16000  1.0000
  O   O22       1.0  0.07970  0.56840  0.07590  1.0000
  C   C10       1.0  0.14355  0.70900  0.13060  1.0000
  Ce  Ce1       1.0  0.09524  0.33311  0.92485  1.0000
  Ce  Ce2       1.0  0.21991  0.96985  0.74275  1.0000
  Ce  Ce3       1.0  0.40476  0.66689  0.07515  1.0000
  Ce  Ce4       1.0  0.28009  0.03015  0.25725  1.0000
  O   O23       1.0  0.91475  0.97150  0.10320  1.0000
  O   O24       1.0  0.50920  0.79950  0.94480  1.0000
  O   O25       1.0  0.99080  0.20050  0.05520  1.0000
  C   C11       1.0  0.52740  0.95050  0.95420  1.0000
  C   C12       1.0  0.97260  0.04950  0.04580  1.0000
  O   O26       1.0  0.58525  0.02850  0.89680  1.0000
  O   O27       1.0  0.74600  0.61370  0.93220  1.0000
  C   C13       1.0  0.72855  0.69570  0.86970  1.0000
  O   O28       1.0  0.61690  0.68070  0.71620  1.0000
  O   O29       1.0  0.77865  0.83820  0.87290  1.0000
  O   O30       1.0  0.58275  0.45860  0.77570  1.0000
  C   C14       1.0  0.63340  0.60130  0.78020  1.0000
  O   O31       1.0  0.65685  0.85070  0.54480  1.0000
  O   O32       1.0  0.67730  0.87160  0.38000  1.0000
  O   O33       1.0  0.84315  0.14930  0.45520  1.0000
  C   C15       1.0  0.70215  0.92060  0.47870  1.0000
  O   O34       1.0  0.82270  0.12840  0.62000  1.0000
  C   C16       1.0  0.79785  0.07940  0.52130  1.0000
  C   C17       1.0  0.77145  0.30430  0.13030  1.0000
  O   O35       1.0  0.88310  0.31930  0.28380  1.0000
  O   O36       1.0  0.72135  0.16180  0.12710  1.0000
  O   O37       1.0  0.91725  0.54140  0.22430  1.0000
  C   C18       1.0  0.86660  0.39870  0.21980  1.0000
  O   O38       1.0  0.75400  0.38630  0.06780  1.0000
  O   O39       1.0  0.89825  0.16840  0.83900  1.0000
  O   O40       1.0  0.75640  0.26810  0.84000  1.0000
  O   O41       1.0  0.92030  0.43160  0.92410  1.0000
  C   C19       1.0  0.85645  0.29100  0.86940  1.0000
  O   O42       1.0  0.60175  0.83160  0.16100  1.0000
  O   O43       1.0  0.74360  0.73190  0.16000  1.0000
  O   O44       1.0  0.57970  0.56840  0.07590  1.0000
  C   C20       1.0  0.64355  0.70900  0.13060  1.0000
  Ce  Ce5       1.0  0.59524  0.33311  0.92485  1.0000
  Ce  Ce6       1.0  0.71991  0.96985  0.74275  1.0000
  Ce  Ce7       1.0  0.90476  0.66689  0.07515  1.0000
  Ce  Ce8       1.0  0.78009  0.03015  0.25725  1.0000
