data_image0
_chemical_formula_structural       PO3HOHO2HOC2HC3HC3HPO3HOHO2HOC2HC3HC3HPO3HOHO2HOC2HC3HC3HC2HC3HC3HPO3HOHO2HOPO3HOHO2HOC2HC3HC3HPO3HOHO2HOC2HC3HC3HC2HC3HC3HPO3HOHO2HO2HOC2HC3HC3HPO3HOHOPO3HO3HOC2HC3HC3HC2HC3HPO3HO3HOC2HCPO3HO3HOC2HC3HC3HC2HC3HC3HPO3HO3HOCa8PO3HOHO2HOC2HC3HC3HPO3HOHO2HOC2HC3HC3HPO3HOHO2HOC2HC3HC3HC2HC3HC3HPO3HOHO2HOPO3HOHO2HOC2HC3HC3HPO3HOHO2HOC2HC3HC3HC2HC3HC3HPO3HOHO2HO2HOC2HC3HC3HPO3HOHOPO3HO3HOC2HC3HC3HC2HC3HPO3HO3HOC2HCPO3HO3HOC2HC3HC3HC2HC3HC3HPO3HO3HOCa8
_chemical_formula_sum              "P24 O168 H136 C192 Ca16"
_cell_length_a       23.112
_cell_length_b       13.9068
_cell_length_c       22.638
_cell_angle_alpha    90
_cell_angle_beta     90
_cell_angle_gamma    90

_space_group_name_H-M_alt    "P 1"
_space_group_IT_number       1

loop_
  _space_group_symop_operation_xyz
  'x, y, z'

loop_
  _atom_site_type_symbol
  _atom_site_label
  _atom_site_symmetry_multiplicity
  _atom_site_fract_x
  _atom_site_fract_y
  _atom_site_fract_z
  _atom_site_occupancy
  P   P1        1.0  0.41484  0.21875  0.52588  1.0000
  O   O1        1.0  0.45130  0.30595  0.51480  1.0000
  O   O2        1.0  0.45080  0.12930  0.51350  1.0000
  O   O3        1.0  0.39110  0.22145  0.59080  1.0000
  H   H1        1.0  0.38030  0.16610  0.60080  1.0000
  O   O4        1.0  0.35070  0.15135  0.30160  1.0000
  H   H2        1.0  0.34660  0.13075  0.26690  1.0000
  O   O5        1.0  0.25300  0.15895  0.29680  1.0000
  O   O6        1.0  0.19080  0.29085  0.55680  1.0000
  H   H3        1.0  0.15690  0.29745  0.56940  1.0000
  O   O7        1.0  0.14510  0.28075  0.46930  1.0000
  C   C1        1.0  0.34970  0.22010  0.48130  1.0000
  C   C2        1.0  0.35180  0.19605  0.42140  1.0000
  H   H4        1.0  0.38730  0.17750  0.40380  1.0000
  C   C3        1.0  0.30100  0.19935  0.38750  1.0000
  C   C4        1.0  0.30050  0.16900  0.32420  1.0000
  C   C5        1.0  0.24850  0.22500  0.41360  1.0000
  H   H5        1.0  0.21410  0.22545  0.39060  1.0000
  C   C6        1.0  0.24620  0.24990  0.47290  1.0000
  C   C7        1.0  0.18960  0.27585  0.49890  1.0000
  C   C8        1.0  0.29750  0.24800  0.50620  1.0000
  H   H6        1.0  0.29640  0.26630  0.54660  1.0000
  P   P2        1.0  0.40479  0.03200  0.96294  1.0000
  O   O8        1.0  0.44000  0.11730  0.98090  1.0000
  O   O9        1.0  0.44150  0.44195  0.97320  1.0000
  O   O10       1.0  0.38320  0.03870  0.89740  1.0000
  H   H7        1.0  0.41000  0.06015  0.87600  1.0000
  O   O11       1.0  0.24500  0.08660  0.18980  1.0000
  H   H8        1.0  0.24950  0.07800  0.22620  1.0000
  O   O12       1.0  0.34210  0.10285  0.18640  1.0000
  O   O13       1.0  0.17620  0.46305  0.93230  1.0000
  H   H9        1.0  0.14160  0.45800  0.92130  1.0000
  O   O14       1.0  0.13460  0.47540  0.02140  1.0000
  C   C9        1.0  0.33930  0.02705  0.00470  1.0000
  C   C10       1.0  0.34120  0.04905  0.06450  1.0000
  H   H10       1.0  0.37760  0.06380  0.08180  1.0000
  C   C11       1.0  0.29200  0.05050  0.10010  1.0000
  C   C12       1.0  0.29540  0.08300  0.16320  1.0000
  C   C13       1.0  0.23930  0.02445  0.07490  1.0000
  H   H11       1.0  0.20540  0.02300  0.09870  1.0000
  C   C14       1.0  0.23560  0.00040  0.01480  1.0000
  C   C15       1.0  0.17790  0.47865  0.99130  1.0000
  C   C16       1.0  0.28590  0.00375  0.98030  1.0000
  H   H12       1.0  0.28340  0.48975  0.93930  1.0000
  P   P3        1.0  0.58516  0.28125  0.02588  1.0000
  O   O15       1.0  0.54870  0.19405  0.01480  1.0000
  O   O16       1.0  0.54920  0.37070  0.01350  1.0000
  O   O17       1.0  0.60890  0.27855  0.09080  1.0000
  H   H13       1.0  0.61970  0.33390  0.10080  1.0000
  O   O18       1.0  0.64930  0.34865  0.80160  1.0000
  H   H14       1.0  0.65340  0.36925  0.76690  1.0000
  O   O19       1.0  0.74700  0.34105  0.79680  1.0000
  O   O20       1.0  0.80920  0.20915  0.05680  1.0000
  H   H15       1.0  0.84310  0.20255  0.06940  1.0000
  O   O21       1.0  0.85490  0.21925  0.96930  1.0000
  C   C17       1.0  0.65030  0.27990  0.98130  1.0000
  C   C18       1.0  0.64820  0.30395  0.92140  1.0000
  H   H16       1.0  0.61270  0.32250  0.90380  1.0000
  C   C19       1.0  0.69900  0.30065  0.88750  1.0000
  C   C20       1.0  0.69950  0.33100  0.82420  1.0000
  C   C21       1.0  0.75150  0.27500  0.91360  1.0000
  H   H17       1.0  0.78590  0.27455  0.89060  1.0000
  C   C22       1.0  0.75380  0.25010  0.97290  1.0000
  C   C23       1.0  0.81040  0.22415  0.99890  1.0000
  C   C24       1.0  0.70250  0.25200  0.00620  1.0000
  H   H18       1.0  0.70360  0.23370  0.04660  1.0000
  C   C25       1.0  0.66070  0.47295  0.50470  1.0000
  C   C26       1.0  0.65880  0.45095  0.56450  1.0000
  H   H19       1.0  0.62240  0.43620  0.58180  1.0000
  C   C27       1.0  0.70800  0.44950  0.60010  1.0000
  C   C28       1.0  0.70460  0.41700  0.66320  1.0000
  C   C29       1.0  0.76070  0.47555  0.57490  1.0000
  H   H20       1.0  0.79460  0.47700  0.59870  1.0000
  C   C30       1.0  0.76440  0.49960  0.51480  1.0000
  C   C31       1.0  0.82210  0.02135  0.49130  1.0000
  C   C32       1.0  0.71410  0.49625  0.48030  1.0000
  H   H21       1.0  0.71660  0.01025  0.43930  1.0000
  P   P4        1.0  0.59521  0.46800  0.46294  1.0000
  O   O22       1.0  0.56000  0.38270  0.48090  1.0000
  O   O23       1.0  0.55850  0.05805  0.47320  1.0000
  O   O24       1.0  0.61680  0.46130  0.39740  1.0000
  H   H22       1.0  0.59000  0.43985  0.37600  1.0000
  O   O25       1.0  0.75500  0.41340  0.68980  1.0000
  H   H23       1.0  0.75050  0.42200  0.72620  1.0000
  O   O26       1.0  0.65790  0.39715  0.68640  1.0000
  O   O27       1.0  0.82380  0.03695  0.43230  1.0000
  H   H24       1.0  0.85840  0.04200  0.42130  1.0000
  O   O28       1.0  0.86540  0.02460  0.52140  1.0000
  P   P5        1.0  0.91484  0.28125  0.52588  1.0000
  O   O29       1.0  0.95130  0.19405  0.51480  1.0000
  O   O30       1.0  0.95080  0.37070  0.51350  1.0000
  O   O31       1.0  0.89110  0.27855  0.59080  1.0000
  H   H25       1.0  0.88030  0.33390  0.60080  1.0000
  O   O32       1.0  0.85070  0.34865  0.30160  1.0000
  H   H26       1.0  0.84660  0.36925  0.26690  1.0000
  O   O33       1.0  0.75300  0.34105  0.29680  1.0000
  O   O34       1.0  0.69080  0.20915  0.55680  1.0000
  H   H27       1.0  0.65690  0.20255  0.56940  1.0000
  O   O35       1.0  0.64510  0.21925  0.46930  1.0000
  C   C33       1.0  0.84970  0.27990  0.48130  1.0000
  C   C34       1.0  0.85180  0.30395  0.42140  1.0000
  H   H28       1.0  0.88730  0.32250  0.40380  1.0000
  C   C35       1.0  0.80100  0.30065  0.38750  1.0000
  C   C36       1.0  0.80050  0.33100  0.32420  1.0000
  C   C37       1.0  0.74850  0.27500  0.41360  1.0000
  H   H29       1.0  0.71410  0.27455  0.39060  1.0000
  C   C38       1.0  0.74620  0.25010  0.47290  1.0000
  C   C39       1.0  0.68960  0.22415  0.49890  1.0000
  C   C40       1.0  0.79750  0.25200  0.50620  1.0000
  H   H30       1.0  0.79640  0.23370  0.54660  1.0000
  P   P6        1.0  0.90479  0.46800  0.96294  1.0000
  O   O36       1.0  0.94000  0.38270  0.98090  1.0000
  O   O37       1.0  0.94150  0.05805  0.97320  1.0000
  O   O38       1.0  0.88320  0.46130  0.89740  1.0000
  H   H31       1.0  0.91000  0.43985  0.87600  1.0000
  O   O39       1.0  0.74500  0.41340  0.18980  1.0000
  H   H32       1.0  0.74950  0.42200  0.22620  1.0000
  O   O40       1.0  0.84210  0.39715  0.18640  1.0000
  O   O41       1.0  0.67620  0.03695  0.93230  1.0000
  H   H33       1.0  0.64160  0.04200  0.92130  1.0000
  O   O42       1.0  0.63460  0.02460  0.02140  1.0000
  C   C41       1.0  0.83930  0.47295  0.00470  1.0000
  C   C42       1.0  0.84120  0.45095  0.06450  1.0000
  H   H34       1.0  0.87760  0.43620  0.08180  1.0000
  C   C43       1.0  0.79200  0.44950  0.10010  1.0000
  C   C44       1.0  0.79540  0.41700  0.16320  1.0000
  C   C45       1.0  0.73930  0.47555  0.07490  1.0000
  H   H35       1.0  0.70540  0.47700  0.09870  1.0000
  C   C46       1.0  0.73560  0.49960  0.01480  1.0000
  C   C47       1.0  0.67790  0.02135  0.99130  1.0000
  C   C48       1.0  0.78590  0.49625  0.98030  1.0000
  H   H36       1.0  0.78340  0.01025  0.93930  1.0000
  C   C49       1.0  0.15030  0.22010  0.98130  1.0000
  C   C50       1.0  0.14820  0.19605  0.92140  1.0000
  H   H37       1.0  0.11270  0.17750  0.90380  1.0000
  C   C51       1.0  0.19900  0.19935  0.88750  1.0000
  C   C52       1.0  0.19950  0.16900  0.82420  1.0000
  C   C53       1.0  0.25150  0.22500  0.91360  1.0000
  H   H38       1.0  0.28590  0.22545  0.89060  1.0000
  C   C54       1.0  0.25380  0.24990  0.97290  1.0000
  C   C55       1.0  0.31040  0.27585  0.99890  1.0000
  C   C56       1.0  0.20250  0.24800  0.00620  1.0000
  H   H39       1.0  0.20360  0.26630  0.04660  1.0000
  P   P7        1.0  0.08516  0.21875  0.02588  1.0000
  O   O43       1.0  0.04870  0.30595  0.01480  1.0000
  O   O44       1.0  0.04920  0.12930  0.01350  1.0000
  O   O45       1.0  0.10890  0.22145  0.09080  1.0000
  H   H40       1.0  0.11970  0.16610  0.10080  1.0000
  O   O46       1.0  0.14930  0.15135  0.80160  1.0000
  H   H41       1.0  0.15340  0.13075  0.76690  1.0000
  O   O47       1.0  0.24700  0.15895  0.79680  1.0000
  O   O48       1.0  0.30920  0.29085  0.05680  1.0000
  H   H42       1.0  0.34310  0.29745  0.06940  1.0000
  O   O49       1.0  0.35490  0.28075  0.96930  1.0000
  O   O50       1.0  0.32380  0.46305  0.43230  1.0000
  H   H43       1.0  0.35840  0.45800  0.42130  1.0000
  O   O51       1.0  0.36540  0.47540  0.52140  1.0000
  C   C57       1.0  0.16070  0.02705  0.50470  1.0000
  C   C58       1.0  0.15880  0.04905  0.56450  1.0000
  H   H44       1.0  0.12240  0.06380  0.58180  1.0000
  C   C59       1.0  0.20800  0.05050  0.60010  1.0000
  C   C60       1.0  0.20460  0.08300  0.66320  1.0000
  C   C61       1.0  0.26070  0.02445  0.57490  1.0000
  H   H45       1.0  0.29460  0.02300  0.59870  1.0000
  C   C62       1.0  0.26440  0.00040  0.51480  1.0000
  C   C63       1.0  0.32210  0.47865  0.49130  1.0000
  C   C64       1.0  0.21410  0.00375  0.48030  1.0000
  H   H46       1.0  0.21660  0.48975  0.43930  1.0000
  P   P8        1.0  0.09521  0.03200  0.46294  1.0000
  O   O52       1.0  0.06000  0.11730  0.48090  1.0000
  O   O53       1.0  0.05850  0.44195  0.47320  1.0000
  O   O54       1.0  0.11680  0.03870  0.39740  1.0000
  H   H47       1.0  0.09000  0.06015  0.37600  1.0000
  O   O55       1.0  0.25500  0.08660  0.68980  1.0000
  H   H48       1.0  0.25050  0.07800  0.72620  1.0000
  O   O56       1.0  0.15790  0.10285  0.68640  1.0000
  P   P9        1.0  0.46557  0.45920  0.34265  1.0000
  O   O57       1.0  0.43410  0.45680  0.40160  1.0000
  O   O58       1.0  0.52340  0.40545  0.33990  1.0000
  O   O59       1.0  0.47400  0.06805  0.32870  1.0000
  H   H49       1.0  0.47630  0.07575  0.29190  1.0000
  O   O60       1.0  0.41610  0.29330  0.08700  1.0000
  O   O61       1.0  0.48230  0.23140  0.14660  1.0000
  O   O62       1.0  0.23940  0.40945  0.30030  1.0000
  H   H50       1.0  0.20310  0.40565  0.30060  1.0000
  O   O63       1.0  0.23010  0.34260  0.20910  1.0000
  C   C65       1.0  0.41930  0.40950  0.28580  1.0000
  C   C66       1.0  0.44410  0.36800  0.23600  1.0000
  H   H51       1.0  0.48510  0.36475  0.23280  1.0000
  C   C67       1.0  0.41040  0.33150  0.19150  1.0000
  C   C68       1.0  0.44160  0.28450  0.13840  1.0000
  C   C69       1.0  0.35080  0.33645  0.19460  1.0000
  H   H52       1.0  0.32750  0.31325  0.16310  1.0000
  C   C70       1.0  0.32450  0.37800  0.24680  1.0000
  C   C71       1.0  0.25960  0.37400  0.24980  1.0000
  C   C72       1.0  0.35940  0.41250  0.29030  1.0000
  H   H53       1.0  0.34230  0.43870  0.32490  1.0000
  C   C73       1.0  0.55840  0.21550  0.63840  1.0000
  C   C74       1.0  0.64920  0.16355  0.69460  1.0000
  H   H54       1.0  0.67250  0.18675  0.66310  1.0000
  C   C75       1.0  0.67550  0.12200  0.74680  1.0000
  C   C76       1.0  0.74040  0.12600  0.74980  1.0000
  C   C77       1.0  0.64060  0.08750  0.79030  1.0000
  H   H55       1.0  0.65770  0.06130  0.82490  1.0000
  P   P10       1.0  0.53443  0.04080  0.84265  1.0000
  O   O64       1.0  0.56590  0.04320  0.90160  1.0000
  O   O65       1.0  0.47660  0.09455  0.83990  1.0000
  O   O66       1.0  0.52600  0.43195  0.82870  1.0000
  H   H56       1.0  0.52370  0.42425  0.79190  1.0000
  O   O67       1.0  0.58390  0.20670  0.58700  1.0000
  O   O68       1.0  0.51770  0.26860  0.64660  1.0000
  O   O69       1.0  0.76060  0.09055  0.80030  1.0000
  H   H57       1.0  0.79690  0.09435  0.80060  1.0000
  O   O70       1.0  0.76990  0.15740  0.70910  1.0000
  C   C78       1.0  0.58070  0.09050  0.78580  1.0000
  C   C79       1.0  0.55590  0.13200  0.73600  1.0000
  H   H58       1.0  0.51490  0.13525  0.73280  1.0000
  C   C80       1.0  0.58960  0.16850  0.69150  1.0000
  P   P11       1.0  0.96557  0.04080  0.34265  1.0000
  O   O71       1.0  0.93410  0.04320  0.40160  1.0000
  O   O72       1.0  0.02340  0.09455  0.33990  1.0000
  O   O73       1.0  0.97400  0.43195  0.32870  1.0000
  H   H59       1.0  0.97630  0.42425  0.29190  1.0000
  O   O74       1.0  0.91610  0.20670  0.08700  1.0000
  O   O75       1.0  0.98230  0.26860  0.14660  1.0000
  O   O76       1.0  0.73940  0.09055  0.30030  1.0000
  H   H60       1.0  0.70310  0.09435  0.30060  1.0000
  O   O77       1.0  0.73010  0.15740  0.20910  1.0000
  C   C81       1.0  0.91930  0.09050  0.28580  1.0000
  C   C82       1.0  0.94410  0.13200  0.23600  1.0000
  H   H61       1.0  0.98510  0.13525  0.23280  1.0000
  C   C83       1.0  0.91040  0.16850  0.19150  1.0000
  C   C84       1.0  0.94160  0.21550  0.13840  1.0000
  C   C85       1.0  0.85080  0.16355  0.19460  1.0000
  H   H62       1.0  0.82750  0.18675  0.16310  1.0000
  C   C86       1.0  0.82450  0.12200  0.24680  1.0000
  C   C87       1.0  0.75960  0.12600  0.24980  1.0000
  C   C88       1.0  0.85940  0.08750  0.29030  1.0000
  H   H63       1.0  0.84230  0.06130  0.32490  1.0000
  C   C89       1.0  0.08070  0.40950  0.78580  1.0000
  C   C90       1.0  0.05590  0.36800  0.73600  1.0000
  H   H64       1.0  0.01490  0.36475  0.73280  1.0000
  C   C91       1.0  0.08960  0.33150  0.69150  1.0000
  C   C92       1.0  0.05840  0.28450  0.63840  1.0000
  C   C93       1.0  0.14920  0.33645  0.69460  1.0000
  H   H65       1.0  0.17250  0.31325  0.66310  1.0000
  C   C94       1.0  0.17550  0.37800  0.74680  1.0000
  C   C95       1.0  0.24040  0.37400  0.74980  1.0000
  C   C96       1.0  0.14060  0.41250  0.79030  1.0000
  H   H66       1.0  0.15770  0.43870  0.82490  1.0000
  P   P12       1.0  0.03443  0.45920  0.84265  1.0000
  O   O78       1.0  0.06590  0.45680  0.90160  1.0000
  O   O79       1.0  0.97660  0.40545  0.83990  1.0000
  O   O80       1.0  0.02600  0.06805  0.82870  1.0000
  H   H67       1.0  0.02370  0.07575  0.79190  1.0000
  O   O81       1.0  0.08390  0.29330  0.58700  1.0000
  O   O82       1.0  0.01770  0.23140  0.64660  1.0000
  O   O83       1.0  0.26060  0.40945  0.80030  1.0000
  H   H68       1.0  0.29690  0.40565  0.80060  1.0000
  O   O84       1.0  0.26990  0.34260  0.70910  1.0000
  Ca  Ca1       1.0  0.46847  0.46785  0.50113  1.0000
  Ca  Ca2       1.0  0.45707  0.28160  0.99093  1.0000
  Ca  Ca3       1.0  0.53153  0.03215  0.00113  1.0000
  Ca  Ca4       1.0  0.54293  0.21840  0.49093  1.0000
  Ca  Ca5       1.0  0.96847  0.03215  0.50113  1.0000
  Ca  Ca6       1.0  0.95707  0.21840  0.99093  1.0000
  Ca  Ca7       1.0  0.03153  0.46785  0.00113  1.0000
  Ca  Ca8       1.0  0.04293  0.28160  0.49093  1.0000
  P   P13       1.0  0.41484  0.71875  0.52588  1.0000
  O   O85       1.0  0.45130  0.80595  0.51480  1.0000
  O   O86       1.0  0.45080  0.62930  0.51350  1.0000
  O   O87       1.0  0.39110  0.72145  0.59080  1.0000
  H   H69       1.0  0.38030  0.66610  0.60080  1.0000
  O   O88       1.0  0.35070  0.65135  0.30160  1.0000
  H   H70       1.0  0.34660  0.63075  0.26690  1.0000
  O   O89       1.0  0.25300  0.65895  0.29680  1.0000
  O   O90       1.0  0.19080  0.79085  0.55680  1.0000
  H   H71       1.0  0.15690  0.79745  0.56940  1.0000
  O   O91       1.0  0.14510  0.78075  0.46930  1.0000
  C   C97       1.0  0.34970  0.72010  0.48130  1.0000
  C   C98       1.0  0.35180  0.69605  0.42140  1.0000
  H   H72       1.0  0.38730  0.67750  0.40380  1.0000
  C   C99       1.0  0.30100  0.69935  0.38750  1.0000
  C   C100      1.0  0.30050  0.66900  0.32420  1.0000
  C   C101      1.0  0.24850  0.72500  0.41360  1.0000
  H   H73       1.0  0.21410  0.72545  0.39060  1.0000
  C   C102      1.0  0.24620  0.74990  0.47290  1.0000
  C   C103      1.0  0.18960  0.77585  0.49890  1.0000
  C   C104      1.0  0.29750  0.74800  0.50620  1.0000
  H   H74       1.0  0.29640  0.76630  0.54660  1.0000
  P   P14       1.0  0.40479  0.53200  0.96294  1.0000
  O   O92       1.0  0.44000  0.61730  0.98090  1.0000
  O   O93       1.0  0.44150  0.94195  0.97320  1.0000
  O   O94       1.0  0.38320  0.53870  0.89740  1.0000
  H   H75       1.0  0.41000  0.56015  0.87600  1.0000
  O   O95       1.0  0.24500  0.58660  0.18980  1.0000
  H   H76       1.0  0.24950  0.57800  0.22620  1.0000
  O   O96       1.0  0.34210  0.60285  0.18640  1.0000
  O   O97       1.0  0.17620  0.96305  0.93230  1.0000
  H   H77       1.0  0.14160  0.95800  0.92130  1.0000
  O   O98       1.0  0.13460  0.97540  0.02140  1.0000
  C   C105      1.0  0.33930  0.52705  0.00470  1.0000
  C   C106      1.0  0.34120  0.54905  0.06450  1.0000
  H   H78       1.0  0.37760  0.56380  0.08180  1.0000
  C   C107      1.0  0.29200  0.55050  0.10010  1.0000
  C   C108      1.0  0.29540  0.58300  0.16320  1.0000
  C   C109      1.0  0.23930  0.52445  0.07490  1.0000
  H   H79       1.0  0.20540  0.52300  0.09870  1.0000
  C   C110      1.0  0.23560  0.50040  0.01480  1.0000
  C   C111      1.0  0.17790  0.97865  0.99130  1.0000
  C   C112      1.0  0.28590  0.50375  0.98030  1.0000
  H   H80       1.0  0.28340  0.98975  0.93930  1.0000
  P   P15       1.0  0.58516  0.78125  0.02588  1.0000
  O   O99       1.0  0.54870  0.69405  0.01480  1.0000
  O   O100      1.0  0.54920  0.87070  0.01350  1.0000
  O   O101      1.0  0.60890  0.77855  0.09080  1.0000
  H   H81       1.0  0.61970  0.83390  0.10080  1.0000
  O   O102      1.0  0.64930  0.84865  0.80160  1.0000
  H   H82       1.0  0.65340  0.86925  0.76690  1.0000
  O   O103      1.0  0.74700  0.84105  0.79680  1.0000
  O   O104      1.0  0.80920  0.70915  0.05680  1.0000
  H   H83       1.0  0.84310  0.70255  0.06940  1.0000
  O   O105      1.0  0.85490  0.71925  0.96930  1.0000
  C   C113      1.0  0.65030  0.77990  0.98130  1.0000
  C   C114      1.0  0.64820  0.80395  0.92140  1.0000
  H   H84       1.0  0.61270  0.82250  0.90380  1.0000
  C   C115      1.0  0.69900  0.80065  0.88750  1.0000
  C   C116      1.0  0.69950  0.83100  0.82420  1.0000
  C   C117      1.0  0.75150  0.77500  0.91360  1.0000
  H   H85       1.0  0.78590  0.77455  0.89060  1.0000
  C   C118      1.0  0.75380  0.75010  0.97290  1.0000
  C   C119      1.0  0.81040  0.72415  0.99890  1.0000
  C   C120      1.0  0.70250  0.75200  0.00620  1.0000
  H   H86       1.0  0.70360  0.73370  0.04660  1.0000
  C   C121      1.0  0.66070  0.97295  0.50470  1.0000
  C   C122      1.0  0.65880  0.95095  0.56450  1.0000
  H   H87       1.0  0.62240  0.93620  0.58180  1.0000
  C   C123      1.0  0.70800  0.94950  0.60010  1.0000
  C   C124      1.0  0.70460  0.91700  0.66320  1.0000
  C   C125      1.0  0.76070  0.97555  0.57490  1.0000
  H   H88       1.0  0.79460  0.97700  0.59870  1.0000
  C   C126      1.0  0.76440  0.99960  0.51480  1.0000
  C   C127      1.0  0.82210  0.52135  0.49130  1.0000
  C   C128      1.0  0.71410  0.99625  0.48030  1.0000
  H   H89       1.0  0.71660  0.51025  0.43930  1.0000
  P   P16       1.0  0.59521  0.96800  0.46294  1.0000
  O   O106      1.0  0.56000  0.88270  0.48090  1.0000
  O   O107      1.0  0.55850  0.55805  0.47320  1.0000
  O   O108      1.0  0.61680  0.96130  0.39740  1.0000
  H   H90       1.0  0.59000  0.93985  0.37600  1.0000
  O   O109      1.0  0.75500  0.91340  0.68980  1.0000
  H   H91       1.0  0.75050  0.92200  0.72620  1.0000
  O   O110      1.0  0.65790  0.89715  0.68640  1.0000
  O   O111      1.0  0.82380  0.53695  0.43230  1.0000
  H   H92       1.0  0.85840  0.54200  0.42130  1.0000
  O   O112      1.0  0.86540  0.52460  0.52140  1.0000
  P   P17       1.0  0.91484  0.78125  0.52588  1.0000
  O   O113      1.0  0.95130  0.69405  0.51480  1.0000
  O   O114      1.0  0.95080  0.87070  0.51350  1.0000
  O   O115      1.0  0.89110  0.77855  0.59080  1.0000
  H   H93       1.0  0.88030  0.83390  0.60080  1.0000
  O   O116      1.0  0.85070  0.84865  0.30160  1.0000
  H   H94       1.0  0.84660  0.86925  0.26690  1.0000
  O   O117      1.0  0.75300  0.84105  0.29680  1.0000
  O   O118      1.0  0.69080  0.70915  0.55680  1.0000
  H   H95       1.0  0.65690  0.70255  0.56940  1.0000
  O   O119      1.0  0.64510  0.71925  0.46930  1.0000
  C   C129      1.0  0.84970  0.77990  0.48130  1.0000
  C   C130      1.0  0.85180  0.80395  0.42140  1.0000
  H   H96       1.0  0.88730  0.82250  0.40380  1.0000
  C   C131      1.0  0.80100  0.80065  0.38750  1.0000
  C   C132      1.0  0.80050  0.83100  0.32420  1.0000
  C   C133      1.0  0.74850  0.77500  0.41360  1.0000
  H   H97       1.0  0.71410  0.77455  0.39060  1.0000
  C   C134      1.0  0.74620  0.75010  0.47290  1.0000
  C   C135      1.0  0.68960  0.72415  0.49890  1.0000
  C   C136      1.0  0.79750  0.75200  0.50620  1.0000
  H   H98       1.0  0.79640  0.73370  0.54660  1.0000
  P   P18       1.0  0.90479  0.96800  0.96294  1.0000
  O   O120      1.0  0.94000  0.88270  0.98090  1.0000
  O   O121      1.0  0.94150  0.55805  0.97320  1.0000
  O   O122      1.0  0.88320  0.96130  0.89740  1.0000
  H   H99       1.0  0.91000  0.93985  0.87600  1.0000
  O   O123      1.0  0.74500  0.91340  0.18980  1.0000
  H   H100      1.0  0.74950  0.92200  0.22620  1.0000
  O   O124      1.0  0.84210  0.89715  0.18640  1.0000
  O   O125      1.0  0.67620  0.53695  0.93230  1.0000
  H   H101      1.0  0.64160  0.54200  0.92130  1.0000
  O   O126      1.0  0.63460  0.52460  0.02140  1.0000
  C   C137      1.0  0.83930  0.97295  0.00470  1.0000
  C   C138      1.0  0.84120  0.95095  0.06450  1.0000
  H   H102      1.0  0.87760  0.93620  0.08180  1.0000
  C   C139      1.0  0.79200  0.94950  0.10010  1.0000
  C   C140      1.0  0.79540  0.91700  0.16320  1.0000
  C   C141      1.0  0.73930  0.97555  0.07490  1.0000
  H   H103      1.0  0.70540  0.97700  0.09870  1.0000
  C   C142      1.0  0.73560  0.99960  0.01480  1.0000
  C   C143      1.0  0.67790  0.52135  0.99130  1.0000
  C   C144      1.0  0.78590  0.99625  0.98030  1.0000
  H   H104      1.0  0.78340  0.51025  0.93930  1.0000
  C   C145      1.0  0.15030  0.72010  0.98130  1.0000
  C   C146      1.0  0.14820  0.69605  0.92140  1.0000
  H   H105      1.0  0.11270  0.67750  0.90380  1.0000
  C   C147      1.0  0.19900  0.69935  0.88750  1.0000
  C   C148      1.0  0.19950  0.66900  0.82420  1.0000
  C   C149      1.0  0.25150  0.72500  0.91360  1.0000
  H   H106      1.0  0.28590  0.72545  0.89060  1.0000
  C   C150      1.0  0.25380  0.74990  0.97290  1.0000
  C   C151      1.0  0.31040  0.77585  0.99890  1.0000
  C   C152      1.0  0.20250  0.74800  0.00620  1.0000
  H   H107      1.0  0.20360  0.76630  0.04660  1.0000
  P   P19       1.0  0.08516  0.71875  0.02588  1.0000
  O   O127      1.0  0.04870  0.80595  0.01480  1.0000
  O   O128      1.0  0.04920  0.62930  0.01350  1.0000
  O   O129      1.0  0.10890  0.72145  0.09080  1.0000
  H   H108      1.0  0.11970  0.66610  0.10080  1.0000
  O   O130      1.0  0.14930  0.65135  0.80160  1.0000
  H   H109      1.0  0.15340  0.63075  0.76690  1.0000
  O   O131      1.0  0.24700  0.65895  0.79680  1.0000
  O   O132      1.0  0.30920  0.79085  0.05680  1.0000
  H   H110      1.0  0.34310  0.79745  0.06940  1.0000
  O   O133      1.0  0.35490  0.78075  0.96930  1.0000
  O   O134      1.0  0.32380  0.96305  0.43230  1.0000
  H   H111      1.0  0.35840  0.95800  0.42130  1.0000
  O   O135      1.0  0.36540  0.97540  0.52140  1.0000
  C   C153      1.0  0.16070  0.52705  0.50470  1.0000
  C   C154      1.0  0.15880  0.54905  0.56450  1.0000
  H   H112      1.0  0.12240  0.56380  0.58180  1.0000
  C   C155      1.0  0.20800  0.55050  0.60010  1.0000
  C   C156      1.0  0.20460  0.58300  0.66320  1.0000
  C   C157      1.0  0.26070  0.52445  0.57490  1.0000
  H   H113      1.0  0.29460  0.52300  0.59870  1.0000
  C   C158      1.0  0.26440  0.50040  0.51480  1.0000
  C   C159      1.0  0.32210  0.97865  0.49130  1.0000
  C   C160      1.0  0.21410  0.50375  0.48030  1.0000
  H   H114      1.0  0.21660  0.98975  0.43930  1.0000
  P   P20       1.0  0.09521  0.53200  0.46294  1.0000
  O   O136      1.0  0.06000  0.61730  0.48090  1.0000
  O   O137      1.0  0.05850  0.94195  0.47320  1.0000
  O   O138      1.0  0.11680  0.53870  0.39740  1.0000
  H   H115      1.0  0.09000  0.56015  0.37600  1.0000
  O   O139      1.0  0.25500  0.58660  0.68980  1.0000
  H   H116      1.0  0.25050  0.57800  0.72620  1.0000
  O   O140      1.0  0.15790  0.60285  0.68640  1.0000
  P   P21       1.0  0.46557  0.95920  0.34265  1.0000
  O   O141      1.0  0.43410  0.95680  0.40160  1.0000
  O   O142      1.0  0.52340  0.90545  0.33990  1.0000
  O   O143      1.0  0.47400  0.56805  0.32870  1.0000
  H   H117      1.0  0.47630  0.57575  0.29190  1.0000
  O   O144      1.0  0.41610  0.79330  0.08700  1.0000
  O   O145      1.0  0.48230  0.73140  0.14660  1.0000
  O   O146      1.0  0.23940  0.90945  0.30030  1.0000
  H   H118      1.0  0.20310  0.90565  0.30060  1.0000
  O   O147      1.0  0.23010  0.84260  0.20910  1.0000
  C   C161      1.0  0.41930  0.90950  0.28580  1.0000
  C   C162      1.0  0.44410  0.86800  0.23600  1.0000
  H   H119      1.0  0.48510  0.86475  0.23280  1.0000
  C   C163      1.0  0.41040  0.83150  0.19150  1.0000
  C   C164      1.0  0.44160  0.78450  0.13840  1.0000
  C   C165      1.0  0.35080  0.83645  0.19460  1.0000
  H   H120      1.0  0.32750  0.81325  0.16310  1.0000
  C   C166      1.0  0.32450  0.87800  0.24680  1.0000
  C   C167      1.0  0.25960  0.87400  0.24980  1.0000
  C   C168      1.0  0.35940  0.91250  0.29030  1.0000
  H   H121      1.0  0.34230  0.93870  0.32490  1.0000
  C   C169      1.0  0.55840  0.71550  0.63840  1.0000
  C   C170      1.0  0.64920  0.66355  0.69460  1.0000
  H   H122      1.0  0.67250  0.68675  0.66310  1.0000
  C   C171      1.0  0.67550  0.62200  0.74680  1.0000
  C   C172      1.0  0.74040  0.62600  0.74980  1.0000
  C   C173      1.0  0.64060  0.58750  0.79030  1.0000
  H   H123      1.0  0.65770  0.56130  0.82490  1.0000
  P   P22       1.0  0.53443  0.54080  0.84265  1.0000
  O   O148      1.0  0.56590  0.54320  0.90160  1.0000
  O   O149      1.0  0.47660  0.59455  0.83990  1.0000
  O   O150      1.0  0.52600  0.93195  0.82870  1.0000
  H   H124      1.0  0.52370  0.92425  0.79190  1.0000
  O   O151      1.0  0.58390  0.70670  0.58700  1.0000
  O   O152      1.0  0.51770  0.76860  0.64660  1.0000
  O   O153      1.0  0.76060  0.59055  0.80030  1.0000
  H   H125      1.0  0.79690  0.59435  0.80060  1.0000
  O   O154      1.0  0.76990  0.65740  0.70910  1.0000
  C   C174      1.0  0.58070  0.59050  0.78580  1.0000
  C   C175      1.0  0.55590  0.63200  0.73600  1.0000
  H   H126      1.0  0.51490  0.63525  0.73280  1.0000
  C   C176      1.0  0.58960  0.66850  0.69150  1.0000
  P   P23       1.0  0.96557  0.54080  0.34265  1.0000
  O   O155      1.0  0.93410  0.54320  0.40160  1.0000
  O   O156      1.0  0.02340  0.59455  0.33990  1.0000
  O   O157      1.0  0.97400  0.93195  0.32870  1.0000
  H   H127      1.0  0.97630  0.92425  0.29190  1.0000
  O   O158      1.0  0.91610  0.70670  0.08700  1.0000
  O   O159      1.0  0.98230  0.76860  0.14660  1.0000
  O   O160      1.0  0.73940  0.59055  0.30030  1.0000
  H   H128      1.0  0.70310  0.59435  0.30060  1.0000
  O   O161      1.0  0.73010  0.65740  0.20910  1.0000
  C   C177      1.0  0.91930  0.59050  0.28580  1.0000
  C   C178      1.0  0.94410  0.63200  0.23600  1.0000
  H   H129      1.0  0.98510  0.63525  0.23280  1.0000
  C   C179      1.0  0.91040  0.66850  0.19150  1.0000
  C   C180      1.0  0.94160  0.71550  0.13840  1.0000
  C   C181      1.0  0.85080  0.66355  0.19460  1.0000
  H   H130      1.0  0.82750  0.68675  0.16310  1.0000
  C   C182      1.0  0.82450  0.62200  0.24680  1.0000
  C   C183      1.0  0.75960  0.62600  0.24980  1.0000
  C   C184      1.0  0.85940  0.58750  0.29030  1.0000
  H   H131      1.0  0.84230  0.56130  0.32490  1.0000
  C   C185      1.0  0.08070  0.90950  0.78580  1.0000
  C   C186      1.0  0.05590  0.86800  0.73600  1.0000
  H   H132      1.0  0.01490  0.86475  0.73280  1.0000
  C   C187      1.0  0.08960  0.83150  0.69150  1.0000
  C   C188      1.0  0.05840  0.78450  0.63840  1.0000
  C   C189      1.0  0.14920  0.83645  0.69460  1.0000
  H   H133      1.0  0.17250  0.81325  0.66310  1.0000
  C   C190      1.0  0.17550  0.87800  0.74680  1.0000
  C   C191      1.0  0.24040  0.87400  0.74980  1.0000
  C   C192      1.0  0.14060  0.91250  0.79030  1.0000
  H   H134      1.0  0.15770  0.93870  0.82490  1.0000
  P   P24       1.0  0.03443  0.95920  0.84265  1.0000
  O   O162      1.0  0.06590  0.95680  0.90160  1.0000
  O   O163      1.0  0.97660  0.90545  0.83990  1.0000
  O   O164      1.0  0.02600  0.56805  0.82870  1.0000
  H   H135      1.0  0.02370  0.57575  0.79190  1.0000
  O   O165      1.0  0.08390  0.79330  0.58700  1.0000
  O   O166      1.0  0.01770  0.73140  0.64660  1.0000
  O   O167      1.0  0.26060  0.90945  0.80030  1.0000
  H   H136      1.0  0.29690  0.90565  0.80060  1.0000
  O   O168      1.0  0.26990  0.84260  0.70910  1.0000
  Ca  Ca9       1.0  0.46847  0.96785  0.50113  1.0000
  Ca  Ca10      1.0  0.45707  0.78160  0.99093  1.0000
  Ca  Ca11      1.0  0.53153  0.53215  0.00113  1.0000
  Ca  Ca12      1.0  0.54293  0.71840  0.49093  1.0000
  Ca  Ca13      1.0  0.96847  0.53215  0.50113  1.0000
  Ca  Ca14      1.0  0.95707  0.71840  0.99093  1.0000
  Ca  Ca15      1.0  0.03153  0.96785  0.00113  1.0000
  Ca  Ca16      1.0  0.04293  0.78160  0.49093  1.0000
