data_image0
_chemical_formula_structural       O3HO3C3HC2HC3HCO3HO3C3HC2HC3HCCa2O3HO3C3HC2HC3HCO3HO3C3HC2HC3HCCa2
_chemical_formula_sum              "O24 H16 C36 Ca4"
_cell_length_a       13.7312
_cell_length_b       9.1287
_cell_length_c       9.9209
_cell_angle_alpha    101.341
_cell_angle_beta     99.683
_cell_angle_gamma    111.95

_space_group_name_H-M_alt    "P 1"
_space_group_IT_number       1

loop_
  _space_group_symop_operation_xyz
  'x, y, z'

loop_
  _atom_site_type_symbol
  _atom_site_label
  _atom_site_symmetry_multiplicity
  _atom_site_fract_x
  _atom_site_fract_y
  _atom_site_fract_z
  _atom_site_occupancy
  O   O1        1.0  0.16180  0.54708  0.35115  1.0000
  O   O2        1.0  0.01080  0.39730  0.87920  1.0000
  O   O3        1.0  0.29090  0.84635  0.49765  1.0000
  H   H1        1.0  0.24595  0.75080  0.46030  1.0000
  O   O4        1.0  0.17890  0.45900  0.86646  1.0000
  O   O5        1.0  0.28090  0.84825  0.27104  1.0000
  O   O6        1.0  0.05555  0.32710  0.17544  1.0000
  C   C1        1.0  0.04165  0.31750  0.40980  1.0000
  C   C2        1.0  0.03660  0.31470  0.65120  1.0000
  C   C3        1.0  0.45630  0.16220  0.36070  1.0000
  H   H2        1.0  0.42935  0.11030  0.26330  1.0000
  C   C4        1.0  0.32125  0.91530  0.39840  1.0000
  C   C5        1.0  0.44995  0.16050  0.60090  1.0000
  H   H3        1.0  0.41810  0.10880  0.66430  1.0000
  C   C6        1.0  0.08900  0.40200  0.30580  1.0000
  C   C7        1.0  0.07805  0.39520  0.80880  1.0000
  C   C8        1.0  0.08300  0.39290  0.55620  1.0000
  H   H4        1.0  0.14175  0.49580  0.59040  1.0000
  C   C9        1.0  0.41075  0.08340  0.45490  1.0000
  O   O7        1.0  0.33820  0.45292  0.64885  1.0000
  O   O8        1.0  0.48920  0.60270  0.12080  1.0000
  O   O9        1.0  0.20910  0.15365  0.50235  1.0000
  H   H5        1.0  0.25405  0.24920  0.53970  1.0000
  O   O10       1.0  0.32110  0.54100  0.13354  1.0000
  O   O11       1.0  0.21910  0.15175  0.72896  1.0000
  O   O12       1.0  0.44445  0.67290  0.82456  1.0000
  C   C10       1.0  0.45835  0.68250  0.59020  1.0000
  C   C11       1.0  0.46340  0.68530  0.34880  1.0000
  C   C12       1.0  0.04370  0.83780  0.63930  1.0000
  H   H6        1.0  0.07065  0.88970  0.73670  1.0000
  C   C13       1.0  0.17875  0.08470  0.60160  1.0000
  C   C14       1.0  0.05005  0.83950  0.39910  1.0000
  H   H7        1.0  0.08190  0.89120  0.33570  1.0000
  C   C15       1.0  0.41100  0.59800  0.69420  1.0000
  C   C16       1.0  0.42195  0.60480  0.19120  1.0000
  C   C17       1.0  0.41700  0.60710  0.44380  1.0000
  H   H8        1.0  0.35825  0.50420  0.40960  1.0000
  C   C18       1.0  0.08925  0.91660  0.54510  1.0000
  Ca  Ca1       1.0  0.15659  0.57803  0.10836  1.0000
  Ca  Ca2       1.0  0.34341  0.42197  0.89164  1.0000
  O   O13       1.0  0.66180  0.54708  0.35115  1.0000
  O   O14       1.0  0.51080  0.39730  0.87920  1.0000
  O   O15       1.0  0.79090  0.84635  0.49765  1.0000
  H   H9        1.0  0.74595  0.75080  0.46030  1.0000
  O   O16       1.0  0.67890  0.45900  0.86646  1.0000
  O   O17       1.0  0.78090  0.84825  0.27104  1.0000
  O   O18       1.0  0.55555  0.32710  0.17544  1.0000
  C   C19       1.0  0.54165  0.31750  0.40980  1.0000
  C   C20       1.0  0.53660  0.31470  0.65120  1.0000
  C   C21       1.0  0.95630  0.16220  0.36070  1.0000
  H   H10       1.0  0.92935  0.11030  0.26330  1.0000
  C   C22       1.0  0.82125  0.91530  0.39840  1.0000
  C   C23       1.0  0.94995  0.16050  0.60090  1.0000
  H   H11       1.0  0.91810  0.10880  0.66430  1.0000
  C   C24       1.0  0.58900  0.40200  0.30580  1.0000
  C   C25       1.0  0.57805  0.39520  0.80880  1.0000
  C   C26       1.0  0.58300  0.39290  0.55620  1.0000
  H   H12       1.0  0.64175  0.49580  0.59040  1.0000
  C   C27       1.0  0.91075  0.08340  0.45490  1.0000
  O   O19       1.0  0.83820  0.45292  0.64885  1.0000
  O   O20       1.0  0.98920  0.60270  0.12080  1.0000
  O   O21       1.0  0.70910  0.15365  0.50235  1.0000
  H   H13       1.0  0.75405  0.24920  0.53970  1.0000
  O   O22       1.0  0.82110  0.54100  0.13354  1.0000
  O   O23       1.0  0.71910  0.15175  0.72896  1.0000
  O   O24       1.0  0.94445  0.67290  0.82456  1.0000
  C   C28       1.0  0.95835  0.68250  0.59020  1.0000
  C   C29       1.0  0.96340  0.68530  0.34880  1.0000
  C   C30       1.0  0.54370  0.83780  0.63930  1.0000
  H   H14       1.0  0.57065  0.88970  0.73670  1.0000
  C   C31       1.0  0.67875  0.08470  0.60160  1.0000
  C   C32       1.0  0.55005  0.83950  0.39910  1.0000
  H   H15       1.0  0.58190  0.89120  0.33570  1.0000
  C   C33       1.0  0.91100  0.59800  0.69420  1.0000
  C   C34       1.0  0.92195  0.60480  0.19120  1.0000
  C   C35       1.0  0.91700  0.60710  0.44380  1.0000
  H   H16       1.0  0.85825  0.50420  0.40960  1.0000
  C   C36       1.0  0.58925  0.91660  0.54510  1.0000
  Ca  Ca3       1.0  0.65659  0.57803  0.10836  1.0000
  Ca  Ca4       1.0  0.84341  0.42197  0.89164  1.0000
