data_image0
_chemical_formula_structural       O2N2H3NHC2HCH2C2HCHO2N2H3NHC2HCH2C2HCHO2N2H3NHC2HCH2C2HCHO2N2H3NHC2HCH2C2HCHO2N2H3NHC2HCH2C2HCHO2N2H3NHC2HCH2C2HCHO2N2H3NHC2HCH2C2HCHO2N2H3NHC2HCH2C2HCHSO3SO3SO3SO4SO4SO4S2O3Zn8
_chemical_formula_sum              "O40 N24 H72 C48 S8 Zn8"
_cell_length_a       14.6764
_cell_length_b       8.3407
_cell_length_c       16.8021
_cell_angle_alpha    90
_cell_angle_beta     101.397
_cell_angle_gamma    90

_space_group_name_H-M_alt    "P 1"
_space_group_IT_number       1

loop_
  _space_group_symop_operation_xyz
  'x, y, z'

loop_
  _atom_site_type_symbol
  _atom_site_label
  _atom_site_symmetry_multiplicity
  _atom_site_fract_x
  _atom_site_fract_y
  _atom_site_fract_z
  _atom_site_occupancy
  O   O1        1.0  0.72872  0.55220  0.65023  1.0000
  O   O2        1.0  0.65775  0.77460  0.67833  1.0000
  N   N1        1.0  0.86113  0.76510  0.96613  1.0000
  N   N2        1.0  0.87467  0.59120  0.77023  1.0000
  H   H1        1.0  0.85890  0.49080  0.77940  1.0000
  H   H2        1.0  0.92180  0.62180  0.80920  1.0000
  H   H3        1.0  0.89170  0.59670  0.72230  1.0000
  N   N3        1.0  0.89271  0.54180  0.03332  1.0000
  H   H4        1.0  0.91680  0.47570  0.07090  1.0000
  C   C1        1.0  0.72120  0.67570  0.69269  1.0000
  C   C2        1.0  0.79423  0.69810  0.76999  1.0000
  H   H5        1.0  0.81570  0.80960  0.77280  1.0000
  C   C3        1.0  0.74743  0.66510  0.84211  1.0000
  H   H6        1.0  0.70620  0.75390  0.84700  1.0000
  H   H7        1.0  0.70930  0.56980  0.83010  1.0000
  C   C4        1.0  0.81093  0.64180  0.92194  1.0000
  C   C5        1.0  0.83070  0.50450  0.96428  1.0000
  H   H8        1.0  0.80650  0.40340  0.94920  1.0000
  C   C6        1.0  0.90950  0.69760  0.03237  1.0000
  H   H9        1.0  0.94990  0.75230  0.07290  1.0000
  O   O3        1.0  0.22872  0.05220  0.65023  1.0000
  O   O4        1.0  0.15775  0.27460  0.67833  1.0000
  N   N4        1.0  0.36113  0.26510  0.96613  1.0000
  N   N5        1.0  0.37467  0.09120  0.77023  1.0000
  H   H10       1.0  0.35890  0.99080  0.77940  1.0000
  H   H11       1.0  0.42180  0.12180  0.80920  1.0000
  H   H12       1.0  0.39170  0.09670  0.72230  1.0000
  N   N6        1.0  0.39271  0.04180  0.03332  1.0000
  H   H13       1.0  0.41680  0.97570  0.07090  1.0000
  C   C7        1.0  0.22120  0.17570  0.69269  1.0000
  C   C8        1.0  0.29423  0.19810  0.76999  1.0000
  H   H14       1.0  0.31570  0.30960  0.77280  1.0000
  C   C9        1.0  0.24743  0.16510  0.84211  1.0000
  H   H15       1.0  0.20620  0.25390  0.84700  1.0000
  H   H16       1.0  0.20930  0.06980  0.83010  1.0000
  C   C10       1.0  0.31093  0.14180  0.92194  1.0000
  C   C11       1.0  0.33070  0.00450  0.96428  1.0000
  H   H17       1.0  0.30650  0.90340  0.94920  1.0000
  C   C12       1.0  0.40950  0.19760  0.03237  1.0000
  H   H18       1.0  0.44990  0.25230  0.07290  1.0000
  O   O5        1.0  0.27128  0.55220  0.84977  1.0000
  O   O6        1.0  0.34225  0.77460  0.82167  1.0000
  N   N7        1.0  0.13887  0.76510  0.53387  1.0000
  N   N8        1.0  0.12533  0.59120  0.72977  1.0000
  H   H19       1.0  0.14110  0.49080  0.72060  1.0000
  H   H20       1.0  0.07820  0.62180  0.69080  1.0000
  H   H21       1.0  0.10830  0.59670  0.77770  1.0000
  N   N9        1.0  0.10729  0.54180  0.46668  1.0000
  H   H22       1.0  0.08320  0.47570  0.42910  1.0000
  C   C13       1.0  0.27880  0.67570  0.80731  1.0000
  C   C14       1.0  0.20577  0.69810  0.73001  1.0000
  H   H23       1.0  0.18430  0.80960  0.72720  1.0000
  C   C15       1.0  0.25257  0.66510  0.65789  1.0000
  H   H24       1.0  0.29380  0.75390  0.65300  1.0000
  H   H25       1.0  0.29070  0.56980  0.66990  1.0000
  C   C16       1.0  0.18907  0.64180  0.57806  1.0000
  C   C17       1.0  0.16930  0.50450  0.53572  1.0000
  H   H26       1.0  0.19350  0.40340  0.55080  1.0000
  C   C18       1.0  0.09050  0.69760  0.46763  1.0000
  H   H27       1.0  0.05010  0.75230  0.42710  1.0000
  O   O7        1.0  0.77128  0.05220  0.84977  1.0000
  O   O8        1.0  0.84225  0.27460  0.82167  1.0000
  N   N10       1.0  0.63887  0.26510  0.53387  1.0000
  N   N11       1.0  0.62533  0.09120  0.72977  1.0000
  H   H28       1.0  0.64110  0.99080  0.72060  1.0000
  H   H29       1.0  0.57820  0.12180  0.69080  1.0000
  H   H30       1.0  0.60830  0.09670  0.77770  1.0000
  N   N12       1.0  0.60729  0.04180  0.46668  1.0000
  H   H31       1.0  0.58320  0.97570  0.42910  1.0000
  C   C19       1.0  0.77880  0.17570  0.80731  1.0000
  C   C20       1.0  0.70577  0.19810  0.73001  1.0000
  H   H32       1.0  0.68430  0.30960  0.72720  1.0000
  C   C21       1.0  0.75257  0.16510  0.65789  1.0000
  H   H33       1.0  0.79380  0.25390  0.65300  1.0000
  H   H34       1.0  0.79070  0.06980  0.66990  1.0000
  C   C22       1.0  0.68907  0.14180  0.57806  1.0000
  C   C23       1.0  0.66930  0.00450  0.53572  1.0000
  H   H35       1.0  0.69350  0.90340  0.55080  1.0000
  C   C24       1.0  0.59050  0.19760  0.46763  1.0000
  H   H36       1.0  0.55010  0.25230  0.42710  1.0000
  O   O9        1.0  0.27128  0.44780  0.34977  1.0000
  O   O10       1.0  0.34225  0.22540  0.32167  1.0000
  N   N13       1.0  0.13887  0.23490  0.03387  1.0000
  N   N14       1.0  0.12533  0.40880  0.22977  1.0000
  H   H37       1.0  0.14110  0.50920  0.22060  1.0000
  H   H38       1.0  0.07820  0.37820  0.19080  1.0000
  H   H39       1.0  0.10830  0.40330  0.27770  1.0000
  N   N15       1.0  0.10729  0.45820  0.96668  1.0000
  H   H40       1.0  0.08320  0.52430  0.92910  1.0000
  C   C25       1.0  0.27880  0.32430  0.30731  1.0000
  C   C26       1.0  0.20577  0.30190  0.23001  1.0000
  H   H41       1.0  0.18430  0.19040  0.22720  1.0000
  C   C27       1.0  0.25257  0.33490  0.15789  1.0000
  H   H42       1.0  0.29380  0.24610  0.15300  1.0000
  H   H43       1.0  0.29070  0.43020  0.16990  1.0000
  C   C28       1.0  0.18907  0.35820  0.07806  1.0000
  C   C29       1.0  0.16930  0.49550  0.03572  1.0000
  H   H44       1.0  0.19350  0.59660  0.05080  1.0000
  C   C30       1.0  0.09050  0.30240  0.96763  1.0000
  H   H45       1.0  0.05010  0.24770  0.92710  1.0000
  O   O11       1.0  0.77128  0.94780  0.34977  1.0000
  O   O12       1.0  0.84225  0.72540  0.32167  1.0000
  N   N16       1.0  0.63887  0.73490  0.03387  1.0000
  N   N17       1.0  0.62533  0.90880  0.22977  1.0000
  H   H46       1.0  0.64110  0.00920  0.22060  1.0000
  H   H47       1.0  0.57820  0.87820  0.19080  1.0000
  H   H48       1.0  0.60830  0.90330  0.27770  1.0000
  N   N18       1.0  0.60729  0.95820  0.96668  1.0000
  H   H49       1.0  0.58320  0.02430  0.92910  1.0000
  C   C31       1.0  0.77880  0.82430  0.30731  1.0000
  C   C32       1.0  0.70577  0.80190  0.23001  1.0000
  H   H50       1.0  0.68430  0.69040  0.22720  1.0000
  C   C33       1.0  0.75257  0.83490  0.15789  1.0000
  H   H51       1.0  0.79380  0.74610  0.15300  1.0000
  H   H52       1.0  0.79070  0.93020  0.16990  1.0000
  C   C34       1.0  0.68907  0.85820  0.07806  1.0000
  C   C35       1.0  0.66930  0.99550  0.03572  1.0000
  H   H53       1.0  0.69350  0.09660  0.05080  1.0000
  C   C36       1.0  0.59050  0.80240  0.96763  1.0000
  H   H54       1.0  0.55010  0.74770  0.92710  1.0000
  O   O13       1.0  0.72872  0.44780  0.15023  1.0000
  O   O14       1.0  0.65775  0.22540  0.17833  1.0000
  N   N19       1.0  0.86113  0.23490  0.46613  1.0000
  N   N20       1.0  0.87467  0.40880  0.27023  1.0000
  H   H55       1.0  0.85890  0.50920  0.27940  1.0000
  H   H56       1.0  0.92180  0.37820  0.30920  1.0000
  H   H57       1.0  0.89170  0.40330  0.22230  1.0000
  N   N21       1.0  0.89271  0.45820  0.53332  1.0000
  H   H58       1.0  0.91680  0.52430  0.57090  1.0000
  C   C37       1.0  0.72120  0.32430  0.19269  1.0000
  C   C38       1.0  0.79423  0.30190  0.26999  1.0000
  H   H59       1.0  0.81570  0.19040  0.27280  1.0000
  C   C39       1.0  0.74743  0.33490  0.34211  1.0000
  H   H60       1.0  0.70620  0.24610  0.34700  1.0000
  H   H61       1.0  0.70930  0.43020  0.33010  1.0000
  C   C40       1.0  0.81093  0.35820  0.42194  1.0000
  C   C41       1.0  0.83070  0.49550  0.46428  1.0000
  H   H62       1.0  0.80650  0.59660  0.44920  1.0000
  C   C42       1.0  0.90950  0.30240  0.53237  1.0000
  H   H63       1.0  0.94990  0.24770  0.57290  1.0000
  O   O15       1.0  0.22872  0.94780  0.15023  1.0000
  O   O16       1.0  0.15775  0.72540  0.17833  1.0000
  N   N22       1.0  0.36113  0.73490  0.46613  1.0000
  N   N23       1.0  0.37467  0.90880  0.27023  1.0000
  H   H64       1.0  0.35890  0.00920  0.27940  1.0000
  H   H65       1.0  0.42180  0.87820  0.30920  1.0000
  H   H66       1.0  0.39170  0.90330  0.22230  1.0000
  N   N24       1.0  0.39271  0.95820  0.53332  1.0000
  H   H67       1.0  0.41680  0.02430  0.57090  1.0000
  C   C43       1.0  0.22120  0.82430  0.19269  1.0000
  C   C44       1.0  0.29423  0.80190  0.26999  1.0000
  H   H68       1.0  0.31570  0.69040  0.27280  1.0000
  C   C45       1.0  0.24743  0.83490  0.34211  1.0000
  H   H69       1.0  0.20620  0.74610  0.34700  1.0000
  H   H70       1.0  0.20930  0.93020  0.33010  1.0000
  C   C46       1.0  0.31093  0.85820  0.42194  1.0000
  C   C47       1.0  0.33070  0.99550  0.46428  1.0000
  H   H71       1.0  0.30650  0.09660  0.44920  1.0000
  C   C48       1.0  0.40950  0.80240  0.53237  1.0000
  H   H72       1.0  0.44990  0.74770  0.57290  1.0000
  S   S1        1.0  0.56827  0.62485  0.38828  1.0000
  O   O17       1.0  0.58763  0.64180  0.48114  1.0000
  O   O18       1.0  0.48028  0.52310  0.36758  1.0000
  O   O19       1.0  0.54083  0.79360  0.35948  1.0000
  S   S2        1.0  0.06827  0.12485  0.38828  1.0000
  O   O20       1.0  0.08763  0.14180  0.48114  1.0000
  O   O21       1.0  0.98028  0.02310  0.36758  1.0000
  O   O22       1.0  0.04083  0.29360  0.35948  1.0000
  S   S3        1.0  0.43173  0.62485  0.11172  1.0000
  O   O23       1.0  0.41237  0.64180  0.01886  1.0000
  O   O24       1.0  0.51972  0.52310  0.13242  1.0000
  O   O25       1.0  0.45917  0.79360  0.14052  1.0000
  S   S4        1.0  0.93173  0.12485  0.11172  1.0000
  O   O26       1.0  0.91237  0.14180  0.01886  1.0000
  O   O27       1.0  0.01972  0.02310  0.13242  1.0000
  O   O28       1.0  0.95917  0.29360  0.14052  1.0000
  O   O29       1.0  0.45917  0.20640  0.64052  1.0000
  S   S5        1.0  0.43173  0.37515  0.61172  1.0000
  O   O30       1.0  0.41237  0.35820  0.51886  1.0000
  O   O31       1.0  0.51972  0.47690  0.63242  1.0000
  O   O32       1.0  0.01972  0.97690  0.63242  1.0000
  O   O33       1.0  0.95917  0.70640  0.64052  1.0000
  S   S6        1.0  0.93173  0.87515  0.61172  1.0000
  O   O34       1.0  0.91237  0.85820  0.51886  1.0000
  O   O35       1.0  0.58763  0.35820  0.98114  1.0000
  O   O36       1.0  0.48028  0.47690  0.86758  1.0000
  O   O37       1.0  0.54083  0.20640  0.85948  1.0000
  S   S7        1.0  0.56827  0.37515  0.88828  1.0000
  S   S8        1.0  0.06827  0.87515  0.88828  1.0000
  O   O38       1.0  0.08763  0.85820  0.98114  1.0000
  O   O39       1.0  0.98028  0.97690  0.86758  1.0000
  O   O40       1.0  0.04083  0.70640  0.85948  1.0000
  Zn  Zn1       1.0  0.61821  0.48838  0.56788  1.0000
  Zn  Zn2       1.0  0.38179  0.51162  0.43212  1.0000
  Zn  Zn3       1.0  0.88179  0.98838  0.93212  1.0000
  Zn  Zn4       1.0  0.11821  0.01162  0.06788  1.0000
  Zn  Zn5       1.0  0.38179  0.48838  0.93212  1.0000
  Zn  Zn6       1.0  0.61821  0.51162  0.06788  1.0000
  Zn  Zn7       1.0  0.11821  0.98838  0.56788  1.0000
  Zn  Zn8       1.0  0.88179  0.01162  0.43212  1.0000
