data_image0
_chemical_formula_structural       OHCO2HCO2HOCO2CHCHO3COHCO2H2OCOCO2HCHO3CHOHO2CHCO2HOCO3CHOCHO3CH2O2COHCOCO2HOHOCO2CHO2CHCHO2Co12
_chemical_formula_sum              "O48 H24 C24 Co12"
_cell_length_a       11.269
_cell_length_b       9.848
_cell_length_c       14.466
_cell_angle_alpha    90
_cell_angle_beta     91.16
_cell_angle_gamma    90

_space_group_name_H-M_alt    "P 1"
_space_group_IT_number       1

loop_
  _space_group_symop_operation_xyz
  'x, y, z'

loop_
  _atom_site_type_symbol
  _atom_site_label
  _atom_site_symmetry_multiplicity
  _atom_site_fract_x
  _atom_site_fract_y
  _atom_site_fract_z
  _atom_site_occupancy
  O   O1        1.0  0.19102  0.69917  0.75483  1.0000
  H   H1        1.0  0.13983  0.74274  0.63225  1.0000
  C   C1        1.0  0.16926  0.67104  0.67019  1.0000
  O   O2        1.0  0.18284  0.55865  0.63239  1.0000
  O   O3        1.0  0.47635  0.10507  0.37668  1.0000
  H   H2        1.0  0.51726  0.19025  0.26640  1.0000
  C   C2        1.0  0.54541  0.13034  0.31341  1.0000
  O   O4        1.0  0.64996  0.08448  0.30488  1.0000
  O   O5        1.0  0.35151  0.88411  0.46699  1.0000
  H   H3        1.0  0.19748  0.83553  0.43044  1.0000
  O   O6        1.0  0.18434  0.97213  0.52361  1.0000
  C   C3        1.0  0.24257  0.89284  0.47062  1.0000
  O   O7        1.0  0.48142  0.70868  0.00289  1.0000
  O   O8        1.0  0.34687  0.75580  0.89117  1.0000
  C   C4        1.0  0.42307  0.78829  0.95381  1.0000
  H   H4        1.0  0.43624  0.88250  0.96371  1.0000
  C   C5        1.0  0.48364  0.48715  0.78846  1.0000
  H   H5        1.0  0.52598  0.46526  0.73433  1.0000
  O   O9        1.0  0.54254  0.50628  0.85998  1.0000
  O   O10       1.0  0.37066  0.49415  0.78067  1.0000
  O   O11       1.0  0.39676  0.15376  0.56030  1.0000
  C   C6        1.0  0.42814  0.27788  0.55008  1.0000
  O   O12       1.0  0.38666  0.37722  0.59140  1.0000
  H   H6        1.0  0.48869  0.29556  0.50695  1.0000
  C   C7        1.0  0.33074  0.17104  0.82981  1.0000
  O   O13       1.0  0.31716  0.05865  0.86761  1.0000
  O   O14       1.0  0.30898  0.19917  0.74517  1.0000
  H   H7        1.0  0.36017  0.24274  0.86774  1.0000
  H   H8        1.0  0.98274  0.69025  0.23360  1.0000
  O   O15       1.0  0.02365  0.60507  0.12332  1.0000
  C   C8        1.0  0.95459  0.63034  0.18659  1.0000
  O   O16       1.0  0.85004  0.58448  0.19512  1.0000
  C   C9        1.0  0.25743  0.39284  0.02938  1.0000
  O   O17       1.0  0.14849  0.38411  0.03301  1.0000
  O   O18       1.0  0.31566  0.47213  0.97639  1.0000
  H   H9        1.0  0.30252  0.33553  0.06956  1.0000
  C   C10       1.0  0.07693  0.28829  0.54619  1.0000
  H   H10       1.0  0.06376  0.38250  0.53629  1.0000
  O   O19       1.0  0.01858  0.20868  0.49711  1.0000
  O   O20       1.0  0.15313  0.25580  0.60883  1.0000
  O   O21       1.0  0.12934  0.99415  0.71933  1.0000
  C   C11       1.0  0.01636  0.98715  0.71154  1.0000
  H   H11       1.0  0.97402  0.96526  0.76567  1.0000
  O   O22       1.0  0.95746  0.00628  0.64002  1.0000
  H   H12       1.0  0.01131  0.79556  0.99305  1.0000
  O   O23       1.0  0.10324  0.65376  0.93970  1.0000
  O   O24       1.0  0.11334  0.87722  0.90860  1.0000
  C   C12       1.0  0.07186  0.77788  0.94992  1.0000
  H   H13       1.0  0.86017  0.25726  0.36775  1.0000
  C   C13       1.0  0.83074  0.32896  0.32981  1.0000
  O   O25       1.0  0.81716  0.44135  0.36761  1.0000
  O   O26       1.0  0.80898  0.30083  0.24517  1.0000
  H   H14       1.0  0.48274  0.80975  0.73360  1.0000
  O   O27       1.0  0.52365  0.89493  0.62332  1.0000
  C   C14       1.0  0.45459  0.86966  0.68659  1.0000
  O   O28       1.0  0.35004  0.91552  0.69512  1.0000
  O   O29       1.0  0.81566  0.02787  0.47639  1.0000
  O   O30       1.0  0.64849  0.11589  0.53301  1.0000
  C   C15       1.0  0.75743  0.10716  0.52938  1.0000
  H   H15       1.0  0.80252  0.16447  0.56956  1.0000
  O   O31       1.0  0.65313  0.24420  0.10883  1.0000
  C   C16       1.0  0.57693  0.21171  0.04619  1.0000
  H   H16       1.0  0.56376  0.11750  0.03629  1.0000
  O   O32       1.0  0.51858  0.29132  0.99711  1.0000
  O   O33       1.0  0.45746  0.49372  0.14002  1.0000
  O   O34       1.0  0.62934  0.50585  0.21933  1.0000
  C   C17       1.0  0.51636  0.51285  0.21154  1.0000
  H   H17       1.0  0.47402  0.53474  0.26567  1.0000
  H   H18       1.0  0.51131  0.70444  0.49305  1.0000
  O   O35       1.0  0.60324  0.84624  0.43970  1.0000
  O   O36       1.0  0.61334  0.62278  0.40860  1.0000
  C   C18       1.0  0.57186  0.72212  0.44992  1.0000
  O   O37       1.0  0.69102  0.80083  0.25483  1.0000
  H   H19       1.0  0.63983  0.75726  0.13225  1.0000
  C   C19       1.0  0.66926  0.82896  0.17019  1.0000
  O   O38       1.0  0.68284  0.94135  0.13239  1.0000
  C   C20       1.0  0.04541  0.36966  0.81341  1.0000
  O   O39       1.0  0.14996  0.41552  0.80488  1.0000
  O   O40       1.0  0.97635  0.39493  0.87668  1.0000
  H   H20       1.0  0.01726  0.30975  0.76640  1.0000
  O   O41       1.0  0.68434  0.52787  0.02361  1.0000
  H   H21       1.0  0.69748  0.66447  0.93044  1.0000
  O   O42       1.0  0.85151  0.61589  0.96699  1.0000
  C   C21       1.0  0.74257  0.60716  0.97062  1.0000
  O   O43       1.0  0.98142  0.79132  0.50289  1.0000
  O   O44       1.0  0.84687  0.74420  0.39117  1.0000
  C   C22       1.0  0.92307  0.71171  0.45381  1.0000
  H   H22       1.0  0.93624  0.61750  0.46371  1.0000
  O   O45       1.0  0.04254  0.99372  0.35998  1.0000
  O   O46       1.0  0.87066  0.00585  0.28067  1.0000
  C   C23       1.0  0.98364  0.01285  0.28846  1.0000
  H   H23       1.0  0.02598  0.03474  0.23433  1.0000
  C   C24       1.0  0.92814  0.22212  0.05008  1.0000
  H   H24       1.0  0.98869  0.20444  0.00695  1.0000
  O   O47       1.0  0.89676  0.34624  0.06030  1.0000
  O   O48       1.0  0.88666  0.12278  0.09140  1.0000
  Co  Co1       1.0  0.25532  0.07826  0.63314  1.0000
  Co  Co2       1.0  0.25966  0.38845  0.68945  1.0000
  Co  Co3       1.0  0.50000  0.00000  0.50000  1.0000
  Co  Co4       1.0  0.00000  0.50000  0.00000  1.0000
  Co  Co5       1.0  0.50000  0.50000  0.00000  1.0000
  Co  Co6       1.0  0.00000  0.00000  0.50000  1.0000
  Co  Co7       1.0  0.75532  0.42174  0.13314  1.0000
  Co  Co8       1.0  0.75966  0.11155  0.18945  1.0000
  Co  Co9       1.0  0.74468  0.92174  0.36686  1.0000
  Co  Co10      1.0  0.74034  0.61155  0.31055  1.0000
  Co  Co11      1.0  0.24468  0.57826  0.86686  1.0000
  Co  Co12      1.0  0.24034  0.88845  0.81055  1.0000
