data_image0
_chemical_formula_structural       P4O4HO4HOHOHO2CHCHCHCHCHCHC2HCHCHC2HCHCHC3HCHC4HC4HO4HO4HOHOHO2CHCHCHCHCHCHC2HCHCHC2HCHCHC3HCHC4HC4HP4CHCHCHCHC2HCHCHC2HCHCHC3HCHC4HC4HP4O4HO4HOHOHO2CHCHCHCHC4HC4HP4O4HO4HOHOHO2CHCHCHCHCHCHC2HCHCHC2HCHCHC2OCHSH2CH3SH2CH3OCHCHSH2CH3O2CHSH2CH3Ni8
_chemical_formula_sum              "P16 O52 H104 C112 S4 Ni8"
_cell_length_a       11.887
_cell_length_b       34.148
_cell_length_c       11.131
_cell_angle_alpha    90
_cell_angle_beta     103.374
_cell_angle_gamma    90

_space_group_name_H-M_alt    "P 1"
_space_group_IT_number       1

loop_
  _space_group_symop_operation_xyz
  'x, y, z'

loop_
  _atom_site_type_symbol
  _atom_site_label
  _atom_site_symmetry_multiplicity
  _atom_site_fract_x
  _atom_site_fract_y
  _atom_site_fract_z
  _atom_site_occupancy
  P   P1        1.0  0.14425  0.62809  0.09612  1.0000
  P   P2        1.0  0.21435  0.33194  0.00152  1.0000
  P   P3        1.0  0.77829  0.64553  0.38618  1.0000
  P   P4        1.0  0.85420  0.34304  0.50869  1.0000
  O   O1        1.0  0.11777  0.65162  0.22810  1.0000
  O   O2        1.0  0.82093  0.66451  0.25679  1.0000
  O   O3        1.0  0.20500  0.30860  0.11798  1.0000
  O   O4        1.0  0.01941  0.61670  0.98706  1.0000
  H   H1        1.0  0.02270  0.58798  0.97599  1.0000
  O   O5        1.0  0.98835  0.35904  0.59762  1.0000
  O   O6        1.0  0.20377  0.65983  0.03272  1.0000
  O   O7        1.0  0.88897  0.32089  0.40124  1.0000
  O   O8        1.0  0.30343  0.30059  0.94321  1.0000
  H   H2        1.0  0.35153  0.31746  0.90313  1.0000
  O   O9        1.0  0.86733  0.66021  0.52532  1.0000
  H   H3        1.0  0.86568  0.63834  0.58324  1.0000
  O   O10       1.0  0.79066  0.30687  0.58010  1.0000
  H   H4        1.0  0.72697  0.32000  0.60768  1.0000
  O   O11       1.0  0.06992  0.32702  0.91770  1.0000
  O   O12       1.0  0.66800  0.66982  0.38445  1.0000
  C   C1        1.0  0.64492  0.38554  0.44473  1.0000
  H   H5        1.0  0.60608  0.36242  0.48771  1.0000
  C   C2        1.0  0.69362  0.58066  0.24866  1.0000
  H   H6        1.0  0.70810  0.59778  0.17279  1.0000
  C   C3        1.0  0.39304  0.38807  0.05188  1.0000
  H   H7        1.0  0.43664  0.37024  0.99660  1.0000
  C   C4        1.0  0.63861  0.54474  0.22660  1.0000
  H   H8        1.0  0.61026  0.53448  0.13273  1.0000
  C   C5        1.0  0.33892  0.53020  0.07119  1.0000
  H   H9        1.0  0.36066  0.51280  0.99894  1.0000
  C   C6        1.0  0.28704  0.57672  0.25687  1.0000
  H   H10       1.0  0.26595  0.59445  0.32832  1.0000
  C   C7        1.0  0.24328  0.58658  0.13351  1.0000
  C   C8        1.0  0.74240  0.44649  0.33572  1.0000
  H   H11       1.0  0.78146  0.46978  0.29353  1.0000
  C   C9        1.0  0.28715  0.43501  0.19880  1.0000
  H   H12       1.0  0.24629  0.45281  0.25688  1.0000
  C   C10       1.0  0.57829  0.41817  0.39891  1.0000
  H   H13       1.0  0.49011  0.41970  0.40906  1.0000
  C   C11       1.0  0.28384  0.37763  0.06966  1.0000
  C   C12       1.0  0.35540  0.54353  0.28808  1.0000
  H   H14       1.0  0.38833  0.53643  0.38424  1.0000
  C   C13       1.0  0.70754  0.57352  0.46738  1.0000
  H   H15       1.0  0.73034  0.58538  0.55971  1.0000
  C   C14       1.0  0.44691  0.42236  0.10342  1.0000
  H   H16       1.0  0.52966  0.43040  0.08585  1.0000
  C   C15       1.0  0.38002  0.51956  0.19531  1.0000
  C   C16       1.0  0.61822  0.52261  0.32506  1.0000
  C   C17       1.0  0.65451  0.53682  0.44620  1.0000
  H   H17       1.0  0.63789  0.52042  0.52305  1.0000
  C   C18       1.0  0.80928  0.41406  0.38287  1.0000
  H   H18       1.0  0.89908  0.41289  0.37765  1.0000
  C   C19       1.0  0.39374  0.44627  0.17626  1.0000
  C   C20       1.0  0.76123  0.38371  0.43870  1.0000
  C   C21       1.0  0.44868  0.48332  0.22809  1.0000
  C   C22       1.0  0.23427  0.40024  0.14892  1.0000
  H   H19       1.0  0.15582  0.39095  0.17353  1.0000
  C   C23       1.0  0.72714  0.59527  0.36797  1.0000
  C   C24       1.0  0.62639  0.44900  0.34387  1.0000
  C   C25       1.0  0.55822  0.48466  0.29909  1.0000
  C   C26       1.0  0.27052  0.56362  0.04016  1.0000
  H   H20       1.0  0.23755  0.57121  0.94400  1.0000
  O   O13       1.0  0.88223  0.15162  0.27190  1.0000
  O   O14       1.0  0.17907  0.16451  0.24321  1.0000
  O   O15       1.0  0.79500  0.80860  0.38202  1.0000
  O   O16       1.0  0.98059  0.11670  0.51294  1.0000
  H   H21       1.0  0.97730  0.08798  0.52401  1.0000
  O   O17       1.0  0.01165  0.85904  0.90238  1.0000
  O   O18       1.0  0.79623  0.15983  0.46728  1.0000
  O   O19       1.0  0.11103  0.82089  0.09876  1.0000
  O   O20       1.0  0.69657  0.80059  0.55679  1.0000
  H   H22       1.0  0.64847  0.81746  0.59687  1.0000
  O   O21       1.0  0.13267  0.16021  0.97468  1.0000
  H   H23       1.0  0.13432  0.13834  0.91676  1.0000
  O   O22       1.0  0.20934  0.80687  0.91990  1.0000
  H   H24       1.0  0.27303  0.82000  0.89232  1.0000
  O   O23       1.0  0.93008  0.82702  0.58230  1.0000
  O   O24       1.0  0.33200  0.16982  0.11555  1.0000
  C   C27       1.0  0.35508  0.88554  0.05527  1.0000
  H   H25       1.0  0.39392  0.86242  0.01229  1.0000
  C   C28       1.0  0.30638  0.08066  0.25134  1.0000
  H   H26       1.0  0.29190  0.09778  0.32721  1.0000
  C   C29       1.0  0.60696  0.88807  0.44812  1.0000
  H   H27       1.0  0.56336  0.87024  0.50340  1.0000
  C   C30       1.0  0.36139  0.04474  0.27340  1.0000
  H   H28       1.0  0.38974  0.03448  0.36727  1.0000
  C   C31       1.0  0.66108  0.03020  0.42881  1.0000
  H   H29       1.0  0.63934  0.01280  0.50106  1.0000
  C   C32       1.0  0.71296  0.07672  0.24313  1.0000
  H   H30       1.0  0.73405  0.09445  0.17168  1.0000
  C   C33       1.0  0.75672  0.08658  0.36649  1.0000
  C   C34       1.0  0.25760  0.94649  0.16428  1.0000
  H   H31       1.0  0.21854  0.96978  0.20647  1.0000
  C   C35       1.0  0.71285  0.93501  0.30120  1.0000
  H   H32       1.0  0.75371  0.95281  0.24312  1.0000
  C   C36       1.0  0.42171  0.91817  0.10109  1.0000
  H   H33       1.0  0.50989  0.91970  0.09094  1.0000
  C   C37       1.0  0.71616  0.87763  0.43034  1.0000
  C   C38       1.0  0.64460  0.04353  0.21192  1.0000
  H   H34       1.0  0.61167  0.03643  0.11576  1.0000
  C   C39       1.0  0.29246  0.07352  0.03262  1.0000
  H   H35       1.0  0.26966  0.08538  0.94029  1.0000
  C   C40       1.0  0.55309  0.92236  0.39658  1.0000
  H   H36       1.0  0.47034  0.93040  0.41415  1.0000
  C   C41       1.0  0.61998  0.01956  0.30469  1.0000
  C   C42       1.0  0.38178  0.02261  0.17494  1.0000
  C   C43       1.0  0.34549  0.03682  0.05380  1.0000
  H   H37       1.0  0.36211  0.02042  0.97695  1.0000
  C   C44       1.0  0.19072  0.91406  0.11713  1.0000
  H   H38       1.0  0.10092  0.91289  0.12235  1.0000
  C   C45       1.0  0.60626  0.94627  0.32374  1.0000
  C   C46       1.0  0.23877  0.88371  0.06130  1.0000
  C   C47       1.0  0.55132  0.98332  0.27191  1.0000
  C   C48       1.0  0.76573  0.90024  0.35108  1.0000
  H   H39       1.0  0.84418  0.89095  0.32647  1.0000
  C   C49       1.0  0.27286  0.09527  0.13203  1.0000
  C   C50       1.0  0.37361  0.94900  0.15613  1.0000
  C   C51       1.0  0.44178  0.98466  0.20091  1.0000
  C   C52       1.0  0.72948  0.06362  0.45984  1.0000
  H   H40       1.0  0.76245  0.07121  0.55600  1.0000
  P   P5        1.0  0.85575  0.12809  0.40388  1.0000
  P   P6        1.0  0.78565  0.83194  0.49848  1.0000
  P   P7        1.0  0.22171  0.14553  0.11382  1.0000
  P   P8        1.0  0.14580  0.84304  0.99131  1.0000
  C   C53       1.0  0.60696  0.61193  0.94812  1.0000
  H   H41       1.0  0.56336  0.62976  0.00340  1.0000
  C   C54       1.0  0.36139  0.45526  0.77340  1.0000
  H   H42       1.0  0.38974  0.46552  0.86727  1.0000
  C   C55       1.0  0.66108  0.46980  0.92881  1.0000
  H   H43       1.0  0.63934  0.48720  0.00106  1.0000
  C   C56       1.0  0.71296  0.42328  0.74313  1.0000
  H   H44       1.0  0.73405  0.40555  0.67168  1.0000
  C   C57       1.0  0.75672  0.41342  0.86649  1.0000
  C   C58       1.0  0.25760  0.55351  0.66428  1.0000
  H   H45       1.0  0.21854  0.53022  0.70647  1.0000
  C   C59       1.0  0.71285  0.56499  0.80120  1.0000
  H   H46       1.0  0.75371  0.54719  0.74312  1.0000
  C   C60       1.0  0.42171  0.58183  0.60109  1.0000
  H   H47       1.0  0.50989  0.58030  0.59094  1.0000
  C   C61       1.0  0.71616  0.62237  0.93034  1.0000
  C   C62       1.0  0.64460  0.45647  0.71192  1.0000
  H   H48       1.0  0.61167  0.46357  0.61576  1.0000
  C   C63       1.0  0.29246  0.42648  0.53262  1.0000
  H   H49       1.0  0.26966  0.41462  0.44029  1.0000
  C   C64       1.0  0.55309  0.57764  0.89658  1.0000
  H   H50       1.0  0.47034  0.56960  0.91415  1.0000
  C   C65       1.0  0.61998  0.48044  0.80469  1.0000
  C   C66       1.0  0.38178  0.47739  0.67494  1.0000
  C   C67       1.0  0.34549  0.46318  0.55380  1.0000
  H   H51       1.0  0.36211  0.47958  0.47695  1.0000
  C   C68       1.0  0.19072  0.58594  0.61713  1.0000
  H   H52       1.0  0.10092  0.58711  0.62235  1.0000
  C   C69       1.0  0.60626  0.55373  0.82374  1.0000
  C   C70       1.0  0.23877  0.61629  0.56130  1.0000
  C   C71       1.0  0.55132  0.51668  0.77191  1.0000
  C   C72       1.0  0.76573  0.59976  0.85108  1.0000
  H   H53       1.0  0.84418  0.60905  0.82647  1.0000
  C   C73       1.0  0.27286  0.40473  0.63203  1.0000
  C   C74       1.0  0.37361  0.55100  0.65613  1.0000
  C   C75       1.0  0.44178  0.51534  0.70091  1.0000
  C   C76       1.0  0.72948  0.43638  0.95984  1.0000
  H   H54       1.0  0.76245  0.42879  0.05600  1.0000
  P   P9        1.0  0.85575  0.37191  0.90388  1.0000
  P   P10       1.0  0.78565  0.66806  0.99848  1.0000
  P   P11       1.0  0.22171  0.35447  0.61382  1.0000
  P   P12       1.0  0.14580  0.65696  0.49131  1.0000
  O   O25       1.0  0.88223  0.34838  0.77190  1.0000
  O   O26       1.0  0.17907  0.33549  0.74321  1.0000
  O   O27       1.0  0.79500  0.69140  0.88202  1.0000
  O   O28       1.0  0.98059  0.38330  0.01294  1.0000
  H   H55       1.0  0.97730  0.41202  0.02401  1.0000
  O   O29       1.0  0.01165  0.64096  0.40238  1.0000
  O   O30       1.0  0.79623  0.34017  0.96728  1.0000
  O   O31       1.0  0.11103  0.67911  0.59876  1.0000
  O   O32       1.0  0.69657  0.69941  0.05679  1.0000
  H   H56       1.0  0.64847  0.68254  0.09687  1.0000
  O   O33       1.0  0.13267  0.33979  0.47468  1.0000
  H   H57       1.0  0.13432  0.36166  0.41676  1.0000
  O   O34       1.0  0.20934  0.69313  0.41990  1.0000
  H   H58       1.0  0.27303  0.68000  0.39232  1.0000
  O   O35       1.0  0.93008  0.67298  0.08230  1.0000
  O   O36       1.0  0.33200  0.33018  0.61555  1.0000
  C   C77       1.0  0.35508  0.61446  0.55527  1.0000
  H   H59       1.0  0.39392  0.63758  0.51229  1.0000
  C   C78       1.0  0.30638  0.41934  0.75134  1.0000
  H   H60       1.0  0.29190  0.40222  0.82721  1.0000
  C   C79       1.0  0.65451  0.96318  0.94620  1.0000
  H   H61       1.0  0.63789  0.97958  0.02305  1.0000
  C   C80       1.0  0.80928  0.08594  0.88287  1.0000
  H   H62       1.0  0.89908  0.08711  0.87765  1.0000
  C   C81       1.0  0.39374  0.05373  0.67626  1.0000
  C   C82       1.0  0.76123  0.11629  0.93870  1.0000
  C   C83       1.0  0.44868  0.01668  0.72809  1.0000
  C   C84       1.0  0.23427  0.09976  0.64892  1.0000
  H   H63       1.0  0.15582  0.10905  0.67353  1.0000
  C   C85       1.0  0.72714  0.90473  0.86797  1.0000
  C   C86       1.0  0.62639  0.05100  0.84387  1.0000
  C   C87       1.0  0.55822  0.01534  0.79909  1.0000
  C   C88       1.0  0.27052  0.93638  0.54016  1.0000
  H   H64       1.0  0.23755  0.92879  0.44400  1.0000
  P   P13       1.0  0.14425  0.87191  0.59612  1.0000
  P   P14       1.0  0.21435  0.16806  0.50152  1.0000
  P   P15       1.0  0.77829  0.85447  0.88618  1.0000
  P   P16       1.0  0.85420  0.15696  0.00869  1.0000
  O   O37       1.0  0.11777  0.84838  0.72810  1.0000
  O   O38       1.0  0.82093  0.83549  0.75679  1.0000
  O   O39       1.0  0.20500  0.19140  0.61798  1.0000
  O   O40       1.0  0.01941  0.88330  0.48706  1.0000
  H   H65       1.0  0.02270  0.91202  0.47599  1.0000
  O   O41       1.0  0.98835  0.14096  0.09762  1.0000
  O   O42       1.0  0.20377  0.84017  0.53272  1.0000
  O   O43       1.0  0.88897  0.17911  0.90124  1.0000
  O   O44       1.0  0.30343  0.19941  0.44321  1.0000
  H   H66       1.0  0.35153  0.18254  0.40313  1.0000
  O   O45       1.0  0.86733  0.83979  0.02532  1.0000
  H   H67       1.0  0.86568  0.86166  0.08324  1.0000
  O   O46       1.0  0.79066  0.19313  0.08010  1.0000
  H   H68       1.0  0.72697  0.18000  0.10768  1.0000
  O   O47       1.0  0.06992  0.17298  0.41770  1.0000
  O   O48       1.0  0.66800  0.83018  0.88445  1.0000
  C   C89       1.0  0.64492  0.11446  0.94473  1.0000
  H   H69       1.0  0.60608  0.13758  0.98771  1.0000
  C   C90       1.0  0.69362  0.91934  0.74866  1.0000
  H   H70       1.0  0.70810  0.90222  0.67279  1.0000
  C   C91       1.0  0.39304  0.11193  0.55188  1.0000
  H   H71       1.0  0.43664  0.12976  0.49660  1.0000
  C   C92       1.0  0.63861  0.95526  0.72660  1.0000
  H   H72       1.0  0.61026  0.96552  0.63273  1.0000
  C   C93       1.0  0.33892  0.96980  0.57119  1.0000
  H   H73       1.0  0.36066  0.98720  0.49894  1.0000
  C   C94       1.0  0.28704  0.92328  0.75687  1.0000
  H   H74       1.0  0.26595  0.90555  0.82832  1.0000
  C   C95       1.0  0.24328  0.91342  0.63351  1.0000
  C   C96       1.0  0.74240  0.05351  0.83572  1.0000
  H   H75       1.0  0.78146  0.03022  0.79353  1.0000
  C   C97       1.0  0.28715  0.06499  0.69880  1.0000
  H   H76       1.0  0.24629  0.04719  0.75688  1.0000
  C   C98       1.0  0.57829  0.08183  0.89891  1.0000
  H   H77       1.0  0.49011  0.08030  0.90906  1.0000
  C   C99       1.0  0.28384  0.12237  0.56966  1.0000
  C   C100      1.0  0.35540  0.95647  0.78808  1.0000
  H   H78       1.0  0.38833  0.96357  0.88424  1.0000
  C   C101      1.0  0.70754  0.92648  0.96738  1.0000
  H   H79       1.0  0.73034  0.91462  0.05971  1.0000
  C   C102      1.0  0.44691  0.07764  0.60342  1.0000
  H   H80       1.0  0.52966  0.06960  0.58585  1.0000
  C   C103      1.0  0.38002  0.98044  0.69531  1.0000
  C   C104      1.0  0.61822  0.97739  0.82506  1.0000
  O   O49       1.0  0.99638  0.70601  0.29300  1.0000
  C   C105      1.0  0.87111  0.75899  0.17291  1.0000
  H   H81       1.0  0.83730  0.75465  0.07242  1.0000
  S   S1        1.0  0.02120  0.74149  0.21539  1.0000
  H   H82       1.0  0.81585  0.74371  0.22590  1.0000
  H   H83       1.0  0.86723  0.79076  0.19071  1.0000
  C   C106      1.0  0.05804  0.77339  0.35189  1.0000
  H   H84       1.0  0.99524  0.76998  0.41111  1.0000
  H   H85       1.0  0.05942  0.80441  0.32265  1.0000
  H   H86       1.0  0.14464  0.76566  0.40705  1.0000
  S   S2        1.0  0.97880  0.24149  0.28461  1.0000
  H   H87       1.0  0.18415  0.24371  0.27410  1.0000
  H   H88       1.0  0.13277  0.29076  0.30929  1.0000
  C   C107      1.0  0.94196  0.27339  0.14811  1.0000
  H   H89       1.0  0.00476  0.26998  0.08889  1.0000
  H   H90       1.0  0.94058  0.30441  0.17735  1.0000
  H   H91       1.0  0.85536  0.26566  0.09295  1.0000
  O   O50       1.0  0.00362  0.20601  0.20700  1.0000
  C   C108      1.0  0.12889  0.25899  0.32709  1.0000
  H   H92       1.0  0.16270  0.25465  0.42758  1.0000
  C   C109      1.0  0.12889  0.24101  0.82709  1.0000
  H   H93       1.0  0.16270  0.24535  0.92758  1.0000
  S   S3        1.0  0.97880  0.25851  0.78461  1.0000
  H   H94       1.0  0.13277  0.20924  0.80929  1.0000
  H   H95       1.0  0.18415  0.25629  0.77410  1.0000
  C   C110      1.0  0.94196  0.22661  0.64811  1.0000
  H   H96       1.0  0.00476  0.23002  0.58889  1.0000
  H   H97       1.0  0.94058  0.19559  0.67735  1.0000
  H   H98       1.0  0.85536  0.23434  0.59295  1.0000
  O   O51       1.0  0.00362  0.29399  0.70700  1.0000
  O   O52       1.0  0.99638  0.79399  0.79300  1.0000
  C   C111      1.0  0.87111  0.74101  0.67291  1.0000
  H   H99       1.0  0.83730  0.74535  0.57242  1.0000
  S   S4        1.0  0.02120  0.75851  0.71539  1.0000
  H   H100      1.0  0.86723  0.70924  0.69071  1.0000
  H   H101      1.0  0.81585  0.75629  0.72590  1.0000
  C   C112      1.0  0.05804  0.72661  0.85189  1.0000
  H   H102      1.0  0.99524  0.73002  0.91111  1.0000
  H   H103      1.0  0.05942  0.69559  0.82265  1.0000
  H   H104      1.0  0.14464  0.73434  0.90705  1.0000
  Ni  Ni1       1.0  0.42608  0.74021  0.73718  1.0000
  Ni  Ni2       1.0  0.03112  0.34312  0.75731  1.0000
  Ni  Ni3       1.0  0.57392  0.24021  0.76282  1.0000
  Ni  Ni4       1.0  0.96888  0.84312  0.74269  1.0000
  Ni  Ni5       1.0  0.57392  0.25979  0.26282  1.0000
  Ni  Ni6       1.0  0.96888  0.65688  0.24269  1.0000
  Ni  Ni7       1.0  0.42608  0.75979  0.23718  1.0000
  Ni  Ni8       1.0  0.03112  0.15688  0.25731  1.0000
