data_image0
_chemical_formula_structural       PO2HOHN2C2HCHCHC3HCHC2HPO3HPO2HOHN2C2HCHCHC3HCHC2HPO3HPO2HOHN2C2HCHCHC3HCHC2HPO3HPO2HOHN2C2HCHCHC3HCHC2HPO3HNC2HCHCHC3HCHC2HPO3HPO2HOHNPO2HOHN2C2HCHCHC3HCHC2HPO3HPO2HOHN2C2HCHCHC3HCHC2HPO3HPO2HOHN2C2HCHCHC3HCHC2HPO3HCu5Cl4CuCl3CuClCuPO2HOHN2C2HCHCHC3HCHC2HPO3HPO2HOHN2C2HCHCHC3HCHC2HPO3HPO2HOHN2C2HCHCHC3HCHC2HPO3HPO2HOHN2C2HCHCHC3HCHC2HPO3HNC2HCHCHC3HCHC2HPO3HPO2HOHNPO2HOHN2C2HCHCHC3HCHC2HPO3HPO2HOHN2C2HCHCHC3HCHC2HPO3HPO2HOHN2C2HCHCHC3HCHC2HPO3HCu5Cl4CuCl3CuClCu
_chemical_formula_sum              "P32 O96 H144 N32 C160 Cu16 Cl16"
_cell_length_a       22.938
_cell_length_b       15.8536
_cell_length_c       14.986
_cell_angle_alpha    90
_cell_angle_beta     100.391
_cell_angle_gamma    90

_space_group_name_H-M_alt    "P 1"
_space_group_IT_number       1

loop_
  _space_group_symop_operation_xyz
  'x, y, z'

loop_
  _atom_site_type_symbol
  _atom_site_label
  _atom_site_symmetry_multiplicity
  _atom_site_fract_x
  _atom_site_fract_y
  _atom_site_fract_z
  _atom_site_occupancy
  P   P1        1.0  0.68167  0.40020  0.16202  1.0000
  O   O1        1.0  0.65238  0.31830  0.13690  1.0000
  O   O2        1.0  0.72198  0.42700  0.09641  1.0000
  H   H1        1.0  0.74440  0.47670  0.11670  1.0000
  O   O3        1.0  0.71972  0.40560  0.25901  1.0000
  H   H2        1.0  0.71100  0.36005  0.29670  1.0000
  N   N1        1.0  0.53407  0.09930  0.14219  1.0000
  N   N2        1.0  0.42128  0.06420  0.10649  1.0000
  C   C1        1.0  0.45719  0.49645  0.11083  1.0000
  C   C2        1.0  0.63711  0.06615  0.16830  1.0000
  H   H3        1.0  0.67620  0.08460  0.18140  1.0000
  C   C3        1.0  0.56534  0.45570  0.13691  1.0000
  H   H4        1.0  0.55550  0.39900  0.12830  1.0000
  C   C4        1.0  0.59119  0.12335  0.16075  1.0000
  H   H5        1.0  0.60000  0.18040  0.16880  1.0000
  C   C5        1.0  0.62454  0.48050  0.15616  1.0000
  C   C6        1.0  0.52122  0.01620  0.13072  1.0000
  C   C7        1.0  0.36237  0.05245  0.09085  1.0000
  H   H6        1.0  0.33760  0.09920  0.08830  1.0000
  C   C8        1.0  0.43487  0.41575  0.09878  1.0000
  H   H7        1.0  0.46050  0.36995  0.10160  1.0000
  C   C9        1.0  0.37391  0.40320  0.08247  1.0000
  C   C10       1.0  0.33727  0.47295  0.07838  1.0000
  H   H8        1.0  0.29630  0.46650  0.06740  1.0000
  P   P2        1.0  0.34287  0.29817  0.06856  1.0000
  O   O4        1.0  0.38953  0.23430  0.09946  1.0000
  O   O5        1.0  0.29304  0.29830  0.12118  1.0000
  O   O6        1.0  0.31493  0.29015  0.96640  1.0000
  H   H9        1.0  0.33400  0.24700  0.93710  1.0000
  P   P3        1.0  0.18167  0.15020  0.16202  1.0000
  O   O7        1.0  0.15238  0.06830  0.13690  1.0000
  O   O8        1.0  0.22198  0.17700  0.09641  1.0000
  H   H10       1.0  0.24440  0.22670  0.11670  1.0000
  O   O9        1.0  0.21972  0.15560  0.25901  1.0000
  H   H11       1.0  0.21100  0.11005  0.29670  1.0000
  N   N3        1.0  0.03407  0.34930  0.14219  1.0000
  N   N4        1.0  0.92128  0.31420  0.10649  1.0000
  C   C11       1.0  0.95719  0.24645  0.11083  1.0000
  C   C12       1.0  0.13711  0.31615  0.16830  1.0000
  H   H12       1.0  0.17620  0.33460  0.18140  1.0000
  C   C13       1.0  0.06534  0.20570  0.13691  1.0000
  H   H13       1.0  0.05550  0.14900  0.12830  1.0000
  C   C14       1.0  0.09119  0.37335  0.16075  1.0000
  H   H14       1.0  0.10000  0.43040  0.16880  1.0000
  C   C15       1.0  0.12454  0.23050  0.15616  1.0000
  C   C16       1.0  0.02122  0.26620  0.13072  1.0000
  C   C17       1.0  0.86237  0.30245  0.09085  1.0000
  H   H15       1.0  0.83760  0.34920  0.08830  1.0000
  C   C18       1.0  0.93487  0.16575  0.09878  1.0000
  H   H16       1.0  0.96050  0.11995  0.10160  1.0000
  C   C19       1.0  0.87391  0.15320  0.08247  1.0000
  C   C20       1.0  0.83727  0.22295  0.07838  1.0000
  H   H17       1.0  0.79630  0.21650  0.06740  1.0000
  P   P4        1.0  0.84287  0.04818  0.06856  1.0000
  O   O10       1.0  0.88953  0.48430  0.09946  1.0000
  O   O11       1.0  0.79304  0.04830  0.12118  1.0000
  O   O12       1.0  0.81493  0.04015  0.96640  1.0000
  H   H18       1.0  0.83400  0.49700  0.93710  1.0000
  P   P5        1.0  0.31833  0.40020  0.33798  1.0000
  O   O13       1.0  0.34762  0.31830  0.36310  1.0000
  O   O14       1.0  0.27802  0.42700  0.40359  1.0000
  H   H19       1.0  0.25560  0.47670  0.38330  1.0000
  O   O15       1.0  0.28028  0.40560  0.24099  1.0000
  H   H20       1.0  0.28900  0.36005  0.20330  1.0000
  N   N5        1.0  0.46593  0.09930  0.35781  1.0000
  N   N6        1.0  0.57872  0.06420  0.39351  1.0000
  C   C21       1.0  0.54281  0.49645  0.38917  1.0000
  C   C22       1.0  0.36289  0.06615  0.33170  1.0000
  H   H21       1.0  0.32380  0.08460  0.31860  1.0000
  C   C23       1.0  0.43466  0.45570  0.36309  1.0000
  H   H22       1.0  0.44450  0.39900  0.37170  1.0000
  C   C24       1.0  0.40881  0.12335  0.33925  1.0000
  H   H23       1.0  0.40000  0.18040  0.33120  1.0000
  C   C25       1.0  0.37546  0.48050  0.34384  1.0000
  C   C26       1.0  0.47878  0.01620  0.36928  1.0000
  C   C27       1.0  0.63763  0.05245  0.40915  1.0000
  H   H24       1.0  0.66240  0.09920  0.41170  1.0000
  C   C28       1.0  0.56513  0.41575  0.40122  1.0000
  H   H25       1.0  0.53950  0.36995  0.39840  1.0000
  C   C29       1.0  0.62609  0.40320  0.41753  1.0000
  C   C30       1.0  0.66273  0.47295  0.42162  1.0000
  H   H26       1.0  0.70370  0.46650  0.43260  1.0000
  P   P6        1.0  0.65713  0.29817  0.43144  1.0000
  O   O16       1.0  0.61047  0.23430  0.40054  1.0000
  O   O17       1.0  0.70696  0.29830  0.37882  1.0000
  O   O18       1.0  0.68507  0.29015  0.53360  1.0000
  H   H27       1.0  0.66600  0.24700  0.56290  1.0000
  P   P7        1.0  0.81833  0.15020  0.33798  1.0000
  O   O19       1.0  0.84762  0.06830  0.36310  1.0000
  O   O20       1.0  0.77802  0.17700  0.40359  1.0000
  H   H28       1.0  0.75560  0.22670  0.38330  1.0000
  O   O21       1.0  0.78028  0.15560  0.24099  1.0000
  H   H29       1.0  0.78900  0.11005  0.20330  1.0000
  N   N7        1.0  0.96593  0.34930  0.35781  1.0000
  N   N8        1.0  0.07872  0.31420  0.39351  1.0000
  C   C31       1.0  0.04281  0.24645  0.38917  1.0000
  C   C32       1.0  0.86289  0.31615  0.33170  1.0000
  H   H30       1.0  0.82380  0.33460  0.31860  1.0000
  C   C33       1.0  0.93466  0.20570  0.36309  1.0000
  H   H31       1.0  0.94450  0.14900  0.37170  1.0000
  C   C34       1.0  0.90881  0.37335  0.33925  1.0000
  H   H32       1.0  0.90000  0.43040  0.33120  1.0000
  C   C35       1.0  0.87546  0.23050  0.34384  1.0000
  C   C36       1.0  0.97878  0.26620  0.36928  1.0000
  C   C37       1.0  0.13763  0.30245  0.40915  1.0000
  H   H33       1.0  0.16240  0.34920  0.41170  1.0000
  C   C38       1.0  0.06513  0.16575  0.40122  1.0000
  H   H34       1.0  0.03950  0.11995  0.39840  1.0000
  C   C39       1.0  0.12609  0.15320  0.41753  1.0000
  C   C40       1.0  0.16273  0.22295  0.42162  1.0000
  H   H35       1.0  0.20370  0.21650  0.43260  1.0000
  P   P8        1.0  0.15713  0.04818  0.43144  1.0000
  O   O22       1.0  0.11047  0.48430  0.40054  1.0000
  O   O23       1.0  0.20696  0.04830  0.37882  1.0000
  O   O24       1.0  0.18507  0.04015  0.53360  1.0000
  H   H36       1.0  0.16600  0.49700  0.56290  1.0000
  N   N9        1.0  0.57872  0.43580  0.89351  1.0000
  C   C41       1.0  0.54281  0.00355  0.88917  1.0000
  C   C42       1.0  0.36289  0.43385  0.83170  1.0000
  H   H37       1.0  0.32380  0.41540  0.81860  1.0000
  C   C43       1.0  0.43466  0.04430  0.86309  1.0000
  H   H38       1.0  0.44450  0.10100  0.87170  1.0000
  C   C44       1.0  0.40881  0.37665  0.83925  1.0000
  H   H39       1.0  0.40000  0.31960  0.83120  1.0000
  C   C45       1.0  0.37546  0.01950  0.84384  1.0000
  C   C46       1.0  0.47878  0.48380  0.86928  1.0000
  C   C47       1.0  0.63763  0.44755  0.90915  1.0000
  H   H40       1.0  0.66240  0.40080  0.91170  1.0000
  C   C48       1.0  0.56513  0.08425  0.90122  1.0000
  H   H41       1.0  0.53950  0.13005  0.89840  1.0000
  C   C49       1.0  0.62609  0.09680  0.91753  1.0000
  C   C50       1.0  0.66273  0.02705  0.92162  1.0000
  H   H42       1.0  0.70370  0.03350  0.93260  1.0000
  P   P9        1.0  0.65713  0.20183  0.93144  1.0000
  O   O25       1.0  0.61047  0.26570  0.90054  1.0000
  O   O26       1.0  0.70696  0.20170  0.87882  1.0000
  O   O27       1.0  0.68507  0.20985  0.03360  1.0000
  H   H43       1.0  0.66600  0.25300  0.06290  1.0000
  P   P10       1.0  0.31833  0.09980  0.83798  1.0000
  O   O28       1.0  0.34762  0.18170  0.86310  1.0000
  O   O29       1.0  0.27802  0.07300  0.90359  1.0000
  H   H44       1.0  0.25560  0.02330  0.88330  1.0000
  O   O30       1.0  0.28028  0.09440  0.74099  1.0000
  H   H45       1.0  0.28900  0.13995  0.70330  1.0000
  N   N10       1.0  0.46593  0.40070  0.85781  1.0000
  P   P11       1.0  0.81833  0.34980  0.83798  1.0000
  O   O31       1.0  0.84762  0.43170  0.86310  1.0000
  O   O32       1.0  0.77802  0.32300  0.90359  1.0000
  H   H46       1.0  0.75560  0.27330  0.88330  1.0000
  O   O33       1.0  0.78028  0.34440  0.74099  1.0000
  H   H47       1.0  0.78900  0.38995  0.70330  1.0000
  N   N11       1.0  0.96593  0.15070  0.85781  1.0000
  N   N12       1.0  0.07872  0.18580  0.89351  1.0000
  C   C51       1.0  0.04281  0.25355  0.88917  1.0000
  C   C52       1.0  0.86289  0.18385  0.83170  1.0000
  H   H48       1.0  0.82380  0.16540  0.81860  1.0000
  C   C53       1.0  0.93466  0.29430  0.86309  1.0000
  H   H49       1.0  0.94450  0.35100  0.87170  1.0000
  C   C54       1.0  0.90881  0.12665  0.83925  1.0000
  H   H50       1.0  0.90000  0.06960  0.83120  1.0000
  C   C55       1.0  0.87546  0.26950  0.84384  1.0000
  C   C56       1.0  0.97878  0.23380  0.86928  1.0000
  C   C57       1.0  0.13763  0.19755  0.90915  1.0000
  H   H51       1.0  0.16240  0.15080  0.91170  1.0000
  C   C58       1.0  0.06513  0.33425  0.90122  1.0000
  H   H52       1.0  0.03950  0.38005  0.89840  1.0000
  C   C59       1.0  0.12609  0.34680  0.91753  1.0000
  C   C60       1.0  0.16273  0.27705  0.92162  1.0000
  H   H53       1.0  0.20370  0.28350  0.93260  1.0000
  P   P12       1.0  0.15713  0.45182  0.93144  1.0000
  O   O34       1.0  0.11047  0.01570  0.90054  1.0000
  O   O35       1.0  0.20696  0.45170  0.87882  1.0000
  O   O36       1.0  0.18507  0.45985  0.03360  1.0000
  H   H54       1.0  0.16600  0.00300  0.06290  1.0000
  P   P13       1.0  0.68167  0.09980  0.66202  1.0000
  O   O37       1.0  0.65238  0.18170  0.63690  1.0000
  O   O38       1.0  0.72198  0.07300  0.59641  1.0000
  H   H55       1.0  0.74440  0.02330  0.61670  1.0000
  O   O39       1.0  0.71972  0.09440  0.75901  1.0000
  H   H56       1.0  0.71100  0.13995  0.79670  1.0000
  N   N13       1.0  0.53407  0.40070  0.64219  1.0000
  N   N14       1.0  0.42128  0.43580  0.60649  1.0000
  C   C61       1.0  0.45719  0.00355  0.61083  1.0000
  C   C62       1.0  0.63711  0.43385  0.66830  1.0000
  H   H57       1.0  0.67620  0.41540  0.68140  1.0000
  C   C63       1.0  0.56534  0.04430  0.63691  1.0000
  H   H58       1.0  0.55550  0.10100  0.62830  1.0000
  C   C64       1.0  0.59119  0.37665  0.66075  1.0000
  H   H59       1.0  0.60000  0.31960  0.66880  1.0000
  C   C65       1.0  0.62454  0.01950  0.65616  1.0000
  C   C66       1.0  0.52122  0.48380  0.63072  1.0000
  C   C67       1.0  0.36237  0.44755  0.59085  1.0000
  H   H60       1.0  0.33760  0.40080  0.58830  1.0000
  C   C68       1.0  0.43487  0.08425  0.59878  1.0000
  H   H61       1.0  0.46050  0.13005  0.60160  1.0000
  C   C69       1.0  0.37391  0.09680  0.58247  1.0000
  C   C70       1.0  0.33727  0.02705  0.57838  1.0000
  H   H62       1.0  0.29630  0.03350  0.56740  1.0000
  P   P14       1.0  0.34287  0.20183  0.56856  1.0000
  O   O40       1.0  0.38953  0.26570  0.59946  1.0000
  O   O41       1.0  0.29304  0.20170  0.62118  1.0000
  O   O42       1.0  0.31493  0.20985  0.46640  1.0000
  H   H63       1.0  0.33400  0.25300  0.43710  1.0000
  P   P15       1.0  0.18167  0.34980  0.66202  1.0000
  O   O43       1.0  0.15238  0.43170  0.63690  1.0000
  O   O44       1.0  0.22198  0.32300  0.59641  1.0000
  H   H64       1.0  0.24440  0.27330  0.61670  1.0000
  O   O45       1.0  0.21972  0.34440  0.75901  1.0000
  H   H65       1.0  0.21100  0.38995  0.79670  1.0000
  N   N15       1.0  0.03407  0.15070  0.64219  1.0000
  N   N16       1.0  0.92128  0.18580  0.60649  1.0000
  C   C71       1.0  0.95719  0.25355  0.61083  1.0000
  C   C72       1.0  0.13711  0.18385  0.66830  1.0000
  H   H66       1.0  0.17620  0.16540  0.68140  1.0000
  C   C73       1.0  0.06534  0.29430  0.63691  1.0000
  H   H67       1.0  0.05550  0.35100  0.62830  1.0000
  C   C74       1.0  0.09119  0.12665  0.66075  1.0000
  H   H68       1.0  0.10000  0.06960  0.66880  1.0000
  C   C75       1.0  0.12454  0.26950  0.65616  1.0000
  C   C76       1.0  0.02122  0.23380  0.63072  1.0000
  C   C77       1.0  0.86237  0.19755  0.59085  1.0000
  H   H69       1.0  0.83760  0.15080  0.58830  1.0000
  C   C78       1.0  0.93487  0.33425  0.59878  1.0000
  H   H70       1.0  0.96050  0.38005  0.60160  1.0000
  C   C79       1.0  0.87391  0.34680  0.58247  1.0000
  C   C80       1.0  0.83727  0.27705  0.57838  1.0000
  H   H71       1.0  0.79630  0.28350  0.56740  1.0000
  P   P16       1.0  0.84287  0.45182  0.56856  1.0000
  O   O46       1.0  0.88953  0.01570  0.59946  1.0000
  O   O47       1.0  0.79304  0.45170  0.62118  1.0000
  O   O48       1.0  0.81493  0.45985  0.46640  1.0000
  H   H72       1.0  0.83400  0.00300  0.43710  1.0000
  Cu  Cu1       1.0  0.46369  0.17579  0.12204  1.0000
  Cu  Cu2       1.0  0.96369  0.07421  0.62204  1.0000
  Cu  Cu3       1.0  0.03631  0.07421  0.87796  1.0000
  Cu  Cu4       1.0  0.03631  0.42579  0.37796  1.0000
  Cu  Cu5       1.0  0.96369  0.42579  0.12204  1.0000
  Cl  Cl1       1.0  0.50000  0.26176  0.25000  1.0000
  Cl  Cl2       1.0  0.00000  0.01175  0.25000  1.0000
  Cl  Cl3       1.0  0.50000  0.23824  0.75000  1.0000
  Cl  Cl4       1.0  0.00000  0.48824  0.75000  1.0000
  Cu  Cu6       1.0  0.46369  0.32421  0.62204  1.0000
  Cl  Cl5       1.0  0.50000  0.25000  0.00000  1.0000
  Cl  Cl6       1.0  0.00000  0.00000  0.00000  1.0000
  Cl  Cl7       1.0  0.00000  0.00000  0.50000  1.0000
  Cu  Cu7       1.0  0.53631  0.32421  0.87796  1.0000
  Cl  Cl8       1.0  0.50000  0.25000  0.50000  1.0000
  Cu  Cu8       1.0  0.53631  0.17579  0.37796  1.0000
  P   P17       1.0  0.68167  0.90020  0.16202  1.0000
  O   O49       1.0  0.65238  0.81830  0.13690  1.0000
  O   O50       1.0  0.72198  0.92700  0.09641  1.0000
  H   H73       1.0  0.74440  0.97670  0.11670  1.0000
  O   O51       1.0  0.71972  0.90560  0.25901  1.0000
  H   H74       1.0  0.71100  0.86005  0.29670  1.0000
  N   N17       1.0  0.53407  0.59930  0.14219  1.0000
  N   N18       1.0  0.42128  0.56420  0.10649  1.0000
  C   C81       1.0  0.45719  0.99645  0.11083  1.0000
  C   C82       1.0  0.63711  0.56615  0.16830  1.0000
  H   H75       1.0  0.67620  0.58460  0.18140  1.0000
  C   C83       1.0  0.56534  0.95570  0.13691  1.0000
  H   H76       1.0  0.55550  0.89900  0.12830  1.0000
  C   C84       1.0  0.59119  0.62335  0.16075  1.0000
  H   H77       1.0  0.60000  0.68040  0.16880  1.0000
  C   C85       1.0  0.62454  0.98050  0.15616  1.0000
  C   C86       1.0  0.52122  0.51620  0.13072  1.0000
  C   C87       1.0  0.36237  0.55245  0.09085  1.0000
  H   H78       1.0  0.33760  0.59920  0.08830  1.0000
  C   C88       1.0  0.43487  0.91575  0.09878  1.0000
  H   H79       1.0  0.46050  0.86995  0.10160  1.0000
  C   C89       1.0  0.37391  0.90320  0.08247  1.0000
  C   C90       1.0  0.33727  0.97295  0.07838  1.0000
  H   H80       1.0  0.29630  0.96650  0.06740  1.0000
  P   P18       1.0  0.34287  0.79817  0.06856  1.0000
  O   O52       1.0  0.38953  0.73430  0.09946  1.0000
  O   O53       1.0  0.29304  0.79830  0.12118  1.0000
  O   O54       1.0  0.31493  0.79015  0.96640  1.0000
  H   H81       1.0  0.33400  0.74700  0.93710  1.0000
  P   P19       1.0  0.18167  0.65020  0.16202  1.0000
  O   O55       1.0  0.15238  0.56830  0.13690  1.0000
  O   O56       1.0  0.22198  0.67700  0.09641  1.0000
  H   H82       1.0  0.24440  0.72670  0.11670  1.0000
  O   O57       1.0  0.21972  0.65560  0.25901  1.0000
  H   H83       1.0  0.21100  0.61005  0.29670  1.0000
  N   N19       1.0  0.03407  0.84930  0.14219  1.0000
  N   N20       1.0  0.92128  0.81420  0.10649  1.0000
  C   C91       1.0  0.95719  0.74645  0.11083  1.0000
  C   C92       1.0  0.13711  0.81615  0.16830  1.0000
  H   H84       1.0  0.17620  0.83460  0.18140  1.0000
  C   C93       1.0  0.06534  0.70570  0.13691  1.0000
  H   H85       1.0  0.05550  0.64900  0.12830  1.0000
  C   C94       1.0  0.09119  0.87335  0.16075  1.0000
  H   H86       1.0  0.10000  0.93040  0.16880  1.0000
  C   C95       1.0  0.12454  0.73050  0.15616  1.0000
  C   C96       1.0  0.02122  0.76620  0.13072  1.0000
  C   C97       1.0  0.86237  0.80245  0.09085  1.0000
  H   H87       1.0  0.83760  0.84920  0.08830  1.0000
  C   C98       1.0  0.93487  0.66575  0.09878  1.0000
  H   H88       1.0  0.96050  0.61995  0.10160  1.0000
  C   C99       1.0  0.87391  0.65320  0.08247  1.0000
  C   C100      1.0  0.83727  0.72295  0.07838  1.0000
  H   H89       1.0  0.79630  0.71650  0.06740  1.0000
  P   P20       1.0  0.84287  0.54817  0.06856  1.0000
  O   O58       1.0  0.88953  0.98430  0.09946  1.0000
  O   O59       1.0  0.79304  0.54830  0.12118  1.0000
  O   O60       1.0  0.81493  0.54015  0.96640  1.0000
  H   H90       1.0  0.83400  0.99700  0.93710  1.0000
  P   P21       1.0  0.31833  0.90020  0.33798  1.0000
  O   O61       1.0  0.34762  0.81830  0.36310  1.0000
  O   O62       1.0  0.27802  0.92700  0.40359  1.0000
  H   H91       1.0  0.25560  0.97670  0.38330  1.0000
  O   O63       1.0  0.28028  0.90560  0.24099  1.0000
  H   H92       1.0  0.28900  0.86005  0.20330  1.0000
  N   N21       1.0  0.46593  0.59930  0.35781  1.0000
  N   N22       1.0  0.57872  0.56420  0.39351  1.0000
  C   C101      1.0  0.54281  0.99645  0.38917  1.0000
  C   C102      1.0  0.36289  0.56615  0.33170  1.0000
  H   H93       1.0  0.32380  0.58460  0.31860  1.0000
  C   C103      1.0  0.43466  0.95570  0.36309  1.0000
  H   H94       1.0  0.44450  0.89900  0.37170  1.0000
  C   C104      1.0  0.40881  0.62335  0.33925  1.0000
  H   H95       1.0  0.40000  0.68040  0.33120  1.0000
  C   C105      1.0  0.37546  0.98050  0.34384  1.0000
  C   C106      1.0  0.47878  0.51620  0.36928  1.0000
  C   C107      1.0  0.63763  0.55245  0.40915  1.0000
  H   H96       1.0  0.66240  0.59920  0.41170  1.0000
  C   C108      1.0  0.56513  0.91575  0.40122  1.0000
  H   H97       1.0  0.53950  0.86995  0.39840  1.0000
  C   C109      1.0  0.62609  0.90320  0.41753  1.0000
  C   C110      1.0  0.66273  0.97295  0.42162  1.0000
  H   H98       1.0  0.70370  0.96650  0.43260  1.0000
  P   P22       1.0  0.65713  0.79817  0.43144  1.0000
  O   O64       1.0  0.61047  0.73430  0.40054  1.0000
  O   O65       1.0  0.70696  0.79830  0.37882  1.0000
  O   O66       1.0  0.68507  0.79015  0.53360  1.0000
  H   H99       1.0  0.66600  0.74700  0.56290  1.0000
  P   P23       1.0  0.81833  0.65020  0.33798  1.0000
  O   O67       1.0  0.84762  0.56830  0.36310  1.0000
  O   O68       1.0  0.77802  0.67700  0.40359  1.0000
  H   H100      1.0  0.75560  0.72670  0.38330  1.0000
  O   O69       1.0  0.78028  0.65560  0.24099  1.0000
  H   H101      1.0  0.78900  0.61005  0.20330  1.0000
  N   N23       1.0  0.96593  0.84930  0.35781  1.0000
  N   N24       1.0  0.07872  0.81420  0.39351  1.0000
  C   C111      1.0  0.04281  0.74645  0.38917  1.0000
  C   C112      1.0  0.86289  0.81615  0.33170  1.0000
  H   H102      1.0  0.82380  0.83460  0.31860  1.0000
  C   C113      1.0  0.93466  0.70570  0.36309  1.0000
  H   H103      1.0  0.94450  0.64900  0.37170  1.0000
  C   C114      1.0  0.90881  0.87335  0.33925  1.0000
  H   H104      1.0  0.90000  0.93040  0.33120  1.0000
  C   C115      1.0  0.87546  0.73050  0.34384  1.0000
  C   C116      1.0  0.97878  0.76620  0.36928  1.0000
  C   C117      1.0  0.13763  0.80245  0.40915  1.0000
  H   H105      1.0  0.16240  0.84920  0.41170  1.0000
  C   C118      1.0  0.06513  0.66575  0.40122  1.0000
  H   H106      1.0  0.03950  0.61995  0.39840  1.0000
  C   C119      1.0  0.12609  0.65320  0.41753  1.0000
  C   C120      1.0  0.16273  0.72295  0.42162  1.0000
  H   H107      1.0  0.20370  0.71650  0.43260  1.0000
  P   P24       1.0  0.15713  0.54817  0.43144  1.0000
  O   O70       1.0  0.11047  0.98430  0.40054  1.0000
  O   O71       1.0  0.20696  0.54830  0.37882  1.0000
  O   O72       1.0  0.18507  0.54015  0.53360  1.0000
  H   H108      1.0  0.16600  0.99700  0.56290  1.0000
  N   N25       1.0  0.57872  0.93580  0.89351  1.0000
  C   C121      1.0  0.54281  0.50355  0.88917  1.0000
  C   C122      1.0  0.36289  0.93385  0.83170  1.0000
  H   H109      1.0  0.32380  0.91540  0.81860  1.0000
  C   C123      1.0  0.43466  0.54430  0.86309  1.0000
  H   H110      1.0  0.44450  0.60100  0.87170  1.0000
  C   C124      1.0  0.40881  0.87665  0.83925  1.0000
  H   H111      1.0  0.40000  0.81960  0.83120  1.0000
  C   C125      1.0  0.37546  0.51950  0.84384  1.0000
  C   C126      1.0  0.47878  0.98380  0.86928  1.0000
  C   C127      1.0  0.63763  0.94755  0.90915  1.0000
  H   H112      1.0  0.66240  0.90080  0.91170  1.0000
  C   C128      1.0  0.56513  0.58425  0.90122  1.0000
  H   H113      1.0  0.53950  0.63005  0.89840  1.0000
  C   C129      1.0  0.62609  0.59680  0.91753  1.0000
  C   C130      1.0  0.66273  0.52705  0.92162  1.0000
  H   H114      1.0  0.70370  0.53350  0.93260  1.0000
  P   P25       1.0  0.65713  0.70183  0.93144  1.0000
  O   O73       1.0  0.61047  0.76570  0.90054  1.0000
  O   O74       1.0  0.70696  0.70170  0.87882  1.0000
  O   O75       1.0  0.68507  0.70985  0.03360  1.0000
  H   H115      1.0  0.66600  0.75300  0.06290  1.0000
  P   P26       1.0  0.31833  0.59980  0.83798  1.0000
  O   O76       1.0  0.34762  0.68170  0.86310  1.0000
  O   O77       1.0  0.27802  0.57300  0.90359  1.0000
  H   H116      1.0  0.25560  0.52330  0.88330  1.0000
  O   O78       1.0  0.28028  0.59440  0.74099  1.0000
  H   H117      1.0  0.28900  0.63995  0.70330  1.0000
  N   N26       1.0  0.46593  0.90070  0.85781  1.0000
  P   P27       1.0  0.81833  0.84980  0.83798  1.0000
  O   O79       1.0  0.84762  0.93170  0.86310  1.0000
  O   O80       1.0  0.77802  0.82300  0.90359  1.0000
  H   H118      1.0  0.75560  0.77330  0.88330  1.0000
  O   O81       1.0  0.78028  0.84440  0.74099  1.0000
  H   H119      1.0  0.78900  0.88995  0.70330  1.0000
  N   N27       1.0  0.96593  0.65070  0.85781  1.0000
  N   N28       1.0  0.07872  0.68580  0.89351  1.0000
  C   C131      1.0  0.04281  0.75355  0.88917  1.0000
  C   C132      1.0  0.86289  0.68385  0.83170  1.0000
  H   H120      1.0  0.82380  0.66540  0.81860  1.0000
  C   C133      1.0  0.93466  0.79430  0.86309  1.0000
  H   H121      1.0  0.94450  0.85100  0.87170  1.0000
  C   C134      1.0  0.90881  0.62665  0.83925  1.0000
  H   H122      1.0  0.90000  0.56960  0.83120  1.0000
  C   C135      1.0  0.87546  0.76950  0.84384  1.0000
  C   C136      1.0  0.97878  0.73380  0.86928  1.0000
  C   C137      1.0  0.13763  0.69755  0.90915  1.0000
  H   H123      1.0  0.16240  0.65080  0.91170  1.0000
  C   C138      1.0  0.06513  0.83425  0.90122  1.0000
  H   H124      1.0  0.03950  0.88005  0.89840  1.0000
  C   C139      1.0  0.12609  0.84680  0.91753  1.0000
  C   C140      1.0  0.16273  0.77705  0.92162  1.0000
  H   H125      1.0  0.20370  0.78350  0.93260  1.0000
  P   P28       1.0  0.15713  0.95183  0.93144  1.0000
  O   O82       1.0  0.11047  0.51570  0.90054  1.0000
  O   O83       1.0  0.20696  0.95170  0.87882  1.0000
  O   O84       1.0  0.18507  0.95985  0.03360  1.0000
  H   H126      1.0  0.16600  0.50300  0.06290  1.0000
  P   P29       1.0  0.68167  0.59980  0.66202  1.0000
  O   O85       1.0  0.65238  0.68170  0.63690  1.0000
  O   O86       1.0  0.72198  0.57300  0.59641  1.0000
  H   H127      1.0  0.74440  0.52330  0.61670  1.0000
  O   O87       1.0  0.71972  0.59440  0.75901  1.0000
  H   H128      1.0  0.71100  0.63995  0.79670  1.0000
  N   N29       1.0  0.53407  0.90070  0.64219  1.0000
  N   N30       1.0  0.42128  0.93580  0.60649  1.0000
  C   C141      1.0  0.45719  0.50355  0.61083  1.0000
  C   C142      1.0  0.63711  0.93385  0.66830  1.0000
  H   H129      1.0  0.67620  0.91540  0.68140  1.0000
  C   C143      1.0  0.56534  0.54430  0.63691  1.0000
  H   H130      1.0  0.55550  0.60100  0.62830  1.0000
  C   C144      1.0  0.59119  0.87665  0.66075  1.0000
  H   H131      1.0  0.60000  0.81960  0.66880  1.0000
  C   C145      1.0  0.62454  0.51950  0.65616  1.0000
  C   C146      1.0  0.52122  0.98380  0.63072  1.0000
  C   C147      1.0  0.36237  0.94755  0.59085  1.0000
  H   H132      1.0  0.33760  0.90080  0.58830  1.0000
  C   C148      1.0  0.43487  0.58425  0.59878  1.0000
  H   H133      1.0  0.46050  0.63005  0.60160  1.0000
  C   C149      1.0  0.37391  0.59680  0.58247  1.0000
  C   C150      1.0  0.33727  0.52705  0.57838  1.0000
  H   H134      1.0  0.29630  0.53350  0.56740  1.0000
  P   P30       1.0  0.34287  0.70183  0.56856  1.0000
  O   O88       1.0  0.38953  0.76570  0.59946  1.0000
  O   O89       1.0  0.29304  0.70170  0.62118  1.0000
  O   O90       1.0  0.31493  0.70985  0.46640  1.0000
  H   H135      1.0  0.33400  0.75300  0.43710  1.0000
  P   P31       1.0  0.18167  0.84980  0.66202  1.0000
  O   O91       1.0  0.15238  0.93170  0.63690  1.0000
  O   O92       1.0  0.22198  0.82300  0.59641  1.0000
  H   H136      1.0  0.24440  0.77330  0.61670  1.0000
  O   O93       1.0  0.21972  0.84440  0.75901  1.0000
  H   H137      1.0  0.21100  0.88995  0.79670  1.0000
  N   N31       1.0  0.03407  0.65070  0.64219  1.0000
  N   N32       1.0  0.92128  0.68580  0.60649  1.0000
  C   C151      1.0  0.95719  0.75355  0.61083  1.0000
  C   C152      1.0  0.13711  0.68385  0.66830  1.0000
  H   H138      1.0  0.17620  0.66540  0.68140  1.0000
  C   C153      1.0  0.06534  0.79430  0.63691  1.0000
  H   H139      1.0  0.05550  0.85100  0.62830  1.0000
  C   C154      1.0  0.09119  0.62665  0.66075  1.0000
  H   H140      1.0  0.10000  0.56960  0.66880  1.0000
  C   C155      1.0  0.12454  0.76950  0.65616  1.0000
  C   C156      1.0  0.02122  0.73380  0.63072  1.0000
  C   C157      1.0  0.86237  0.69755  0.59085  1.0000
  H   H141      1.0  0.83760  0.65080  0.58830  1.0000
  C   C158      1.0  0.93487  0.83425  0.59878  1.0000
  H   H142      1.0  0.96050  0.88005  0.60160  1.0000
  C   C159      1.0  0.87391  0.84680  0.58247  1.0000
  C   C160      1.0  0.83727  0.77705  0.57838  1.0000
  H   H143      1.0  0.79630  0.78350  0.56740  1.0000
  P   P32       1.0  0.84287  0.95183  0.56856  1.0000
  O   O94       1.0  0.88953  0.51570  0.59946  1.0000
  O   O95       1.0  0.79304  0.95170  0.62118  1.0000
  O   O96       1.0  0.81493  0.95985  0.46640  1.0000
  H   H144      1.0  0.83400  0.50300  0.43710  1.0000
  Cu  Cu9       1.0  0.46369  0.67579  0.12204  1.0000
  Cu  Cu10      1.0  0.96369  0.57421  0.62204  1.0000
  Cu  Cu11      1.0  0.03631  0.57421  0.87796  1.0000
  Cu  Cu12      1.0  0.03631  0.92579  0.37796  1.0000
  Cu  Cu13      1.0  0.96369  0.92579  0.12204  1.0000
  Cl  Cl9       1.0  0.50000  0.76176  0.25000  1.0000
  Cl  Cl10      1.0  0.00000  0.51175  0.25000  1.0000
  Cl  Cl11      1.0  0.50000  0.73824  0.75000  1.0000
  Cl  Cl12      1.0  0.00000  0.98824  0.75000  1.0000
  Cu  Cu14      1.0  0.46369  0.82421  0.62204  1.0000
  Cl  Cl13      1.0  0.50000  0.75000  0.00000  1.0000
  Cl  Cl14      1.0  0.00000  0.50000  0.00000  1.0000
  Cl  Cl15      1.0  0.00000  0.50000  0.50000  1.0000
  Cu  Cu15      1.0  0.53631  0.82421  0.87796  1.0000
  Cl  Cl16      1.0  0.50000  0.75000  0.50000  1.0000
  Cu  Cu16      1.0  0.53631  0.67579  0.37796  1.0000
