data_image0
_chemical_formula_structural       O4C2O2CO2CO4C2O2CO2CO4C2O3C2OZn4O4C2O2CO2CO4C2O2CO2CO4C2O3C2OZn4
_chemical_formula_sum              "O48 C24 Zn8"
_cell_length_a       15.4004
_cell_length_b       16.4928
_cell_length_c       9.1611
_cell_angle_alpha    90
_cell_angle_beta     108.314
_cell_angle_gamma    90

_space_group_name_H-M_alt    "P 1"
_space_group_IT_number       1

loop_
  _space_group_symop_operation_xyz
  'x, y, z'

loop_
  _atom_site_type_symbol
  _atom_site_label
  _atom_site_symmetry_multiplicity
  _atom_site_fract_x
  _atom_site_fract_y
  _atom_site_fract_z
  _atom_site_occupancy
  O   O1        1.0  0.43745  0.25052  0.84550  1.0000
  O   O2        1.0  0.43745  0.32205  0.63900  1.0000
  O   O3        1.0  0.09685  0.18157  0.85280  1.0000
  O   O4        1.0  0.10220  0.26015  0.65690  1.0000
  C   C1        1.0  0.06605  0.23430  0.75260  1.0000
  C   C2        1.0  0.47170  0.27210  0.74640  1.0000
  O   O5        1.0  0.43105  0.07038  0.87270  1.0000
  O   O6        1.0  0.41310  0.93644  0.88940  1.0000
  C   C3        1.0  0.45465  0.00190  0.93100  1.0000
  O   O7        1.0  0.06895  0.92962  0.12730  1.0000
  O   O8        1.0  0.08690  0.06356  0.11060  1.0000
  C   C4        1.0  0.04535  0.99810  0.06900  1.0000
  O   O9        1.0  0.06255  0.75052  0.65450  1.0000
  O   O10       1.0  0.06255  0.82205  0.86100  1.0000
  O   O11       1.0  0.40315  0.68157  0.64720  1.0000
  O   O12       1.0  0.39780  0.76015  0.84310  1.0000
  C   C5        1.0  0.43395  0.73430  0.74740  1.0000
  C   C6        1.0  0.02830  0.77210  0.75360  1.0000
  O   O13       1.0  0.43105  0.42962  0.37270  1.0000
  O   O14       1.0  0.41310  0.56356  0.38940  1.0000
  C   C7        1.0  0.45465  0.49810  0.43100  1.0000
  O   O15       1.0  0.06895  0.57038  0.62730  1.0000
  O   O16       1.0  0.08690  0.43644  0.61060  1.0000
  C   C8        1.0  0.04535  0.50190  0.56900  1.0000
  O   O17       1.0  0.06255  0.74948  0.15450  1.0000
  O   O18       1.0  0.06255  0.67795  0.36100  1.0000
  O   O19       1.0  0.40315  0.81843  0.14720  1.0000
  O   O20       1.0  0.39780  0.73985  0.34310  1.0000
  C   C9        1.0  0.43395  0.76570  0.24740  1.0000
  C   C10       1.0  0.02830  0.72790  0.25360  1.0000
  O   O21       1.0  0.43745  0.17795  0.13900  1.0000
  O   O22       1.0  0.09685  0.31843  0.35280  1.0000
  O   O23       1.0  0.10220  0.23985  0.15690  1.0000
  C   C11       1.0  0.06605  0.26570  0.25260  1.0000
  C   C12       1.0  0.47170  0.22790  0.24640  1.0000
  O   O24       1.0  0.43745  0.24948  0.34550  1.0000
  Zn  Zn1       1.0  0.01465  0.16343  0.99248  1.0000
  Zn  Zn2       1.0  0.48535  0.66343  0.50752  1.0000
  Zn  Zn3       1.0  0.48535  0.83657  0.00752  1.0000
  Zn  Zn4       1.0  0.01465  0.33657  0.49248  1.0000
  O   O25       1.0  0.93745  0.25052  0.84550  1.0000
  O   O26       1.0  0.93745  0.32205  0.63900  1.0000
  O   O27       1.0  0.59685  0.18157  0.85280  1.0000
  O   O28       1.0  0.60220  0.26015  0.65690  1.0000
  C   C13       1.0  0.56605  0.23430  0.75260  1.0000
  C   C14       1.0  0.97170  0.27210  0.74640  1.0000
  O   O29       1.0  0.93105  0.07038  0.87270  1.0000
  O   O30       1.0  0.91310  0.93644  0.88940  1.0000
  C   C15       1.0  0.95465  0.00190  0.93100  1.0000
  O   O31       1.0  0.56895  0.92962  0.12730  1.0000
  O   O32       1.0  0.58690  0.06356  0.11060  1.0000
  C   C16       1.0  0.54535  0.99810  0.06900  1.0000
  O   O33       1.0  0.56255  0.75052  0.65450  1.0000
  O   O34       1.0  0.56255  0.82205  0.86100  1.0000
  O   O35       1.0  0.90315  0.68157  0.64720  1.0000
  O   O36       1.0  0.89780  0.76015  0.84310  1.0000
  C   C17       1.0  0.93395  0.73430  0.74740  1.0000
  C   C18       1.0  0.52830  0.77210  0.75360  1.0000
  O   O37       1.0  0.93105  0.42962  0.37270  1.0000
  O   O38       1.0  0.91310  0.56356  0.38940  1.0000
  C   C19       1.0  0.95465  0.49810  0.43100  1.0000
  O   O39       1.0  0.56895  0.57038  0.62730  1.0000
  O   O40       1.0  0.58690  0.43644  0.61060  1.0000
  C   C20       1.0  0.54535  0.50190  0.56900  1.0000
  O   O41       1.0  0.56255  0.74948  0.15450  1.0000
  O   O42       1.0  0.56255  0.67795  0.36100  1.0000
  O   O43       1.0  0.90315  0.81843  0.14720  1.0000
  O   O44       1.0  0.89780  0.73985  0.34310  1.0000
  C   C21       1.0  0.93395  0.76570  0.24740  1.0000
  C   C22       1.0  0.52830  0.72790  0.25360  1.0000
  O   O45       1.0  0.93745  0.17795  0.13900  1.0000
  O   O46       1.0  0.59685  0.31843  0.35280  1.0000
  O   O47       1.0  0.60220  0.23985  0.15690  1.0000
  C   C23       1.0  0.56605  0.26570  0.25260  1.0000
  C   C24       1.0  0.97170  0.22790  0.24640  1.0000
  O   O48       1.0  0.93745  0.24948  0.34550  1.0000
  Zn  Zn5       1.0  0.51465  0.16343  0.99248  1.0000
  Zn  Zn6       1.0  0.98535  0.66343  0.50752  1.0000
  Zn  Zn7       1.0  0.98535  0.83657  0.00752  1.0000
  Zn  Zn8       1.0  0.51465  0.33657  0.49248  1.0000
