data_image0
_chemical_formula_structural       O2CO2CO2CO2CO2CO2CZn2O2CO2CO2CO2CO2CO2CZn2
_chemical_formula_sum              "O24 C12 Zn4"
_cell_length_a       15.9716
_cell_length_b       9.1574
_cell_length_c       9.4523
_cell_angle_alpha    62.025
_cell_angle_beta     82.335
_cell_angle_gamma    72.873

_space_group_name_H-M_alt    "P 1"
_space_group_IT_number       1

loop_
  _space_group_symop_operation_xyz
  'x, y, z'

loop_
  _atom_site_type_symbol
  _atom_site_label
  _atom_site_symmetry_multiplicity
  _atom_site_fract_x
  _atom_site_fract_y
  _atom_site_fract_z
  _atom_site_occupancy
  O   O1        1.0  0.42015  0.17520  0.37020  1.0000
  O   O2        1.0  0.42335  0.03620  0.63840  1.0000
  C   C1        1.0  0.45490  0.06030  0.50350  1.0000
  O   O3        1.0  0.07985  0.82480  0.62980  1.0000
  O   O4        1.0  0.07665  0.96380  0.36160  1.0000
  C   C2        1.0  0.04510  0.93970  0.49650  1.0000
  O   O5        1.0  0.08230  0.59710  0.98600  1.0000
  O   O6        1.0  0.07515  0.32740  0.14140  1.0000
  C   C3        1.0  0.04555  0.47840  0.03660  1.0000
  O   O7        1.0  0.41770  0.40290  0.01400  1.0000
  O   O8        1.0  0.42485  0.67260  0.85860  1.0000
  C   C4        1.0  0.45445  0.52160  0.96340  1.0000
  O   O9        1.0  0.42835  0.88670  0.00330  1.0000
  O   O10       1.0  0.42530  0.02810  0.14340  1.0000
  C   C5        1.0  0.45765  0.97530  0.04240  1.0000
  O   O11       1.0  0.07165  0.11330  0.99670  1.0000
  O   O12       1.0  0.07470  0.97190  0.85660  1.0000
  C   C6        1.0  0.04235  0.02470  0.95760  1.0000
  Zn  Zn1       1.0  0.00398  0.83185  0.82516  1.0000
  Zn  Zn2       1.0  0.49602  0.16815  0.17484  1.0000
  O   O13       1.0  0.92015  0.17520  0.37020  1.0000
  O   O14       1.0  0.92335  0.03620  0.63840  1.0000
  C   C7        1.0  0.95490  0.06030  0.50350  1.0000
  O   O15       1.0  0.57985  0.82480  0.62980  1.0000
  O   O16       1.0  0.57665  0.96380  0.36160  1.0000
  C   C8        1.0  0.54510  0.93970  0.49650  1.0000
  O   O17       1.0  0.58230  0.59710  0.98600  1.0000
  O   O18       1.0  0.57515  0.32740  0.14140  1.0000
  C   C9        1.0  0.54555  0.47840  0.03660  1.0000
  O   O19       1.0  0.91770  0.40290  0.01400  1.0000
  O   O20       1.0  0.92485  0.67260  0.85860  1.0000
  C   C10       1.0  0.95445  0.52160  0.96340  1.0000
  O   O21       1.0  0.92835  0.88670  0.00330  1.0000
  O   O22       1.0  0.92530  0.02810  0.14340  1.0000
  C   C11       1.0  0.95765  0.97530  0.04240  1.0000
  O   O23       1.0  0.57165  0.11330  0.99670  1.0000
  O   O24       1.0  0.57470  0.97190  0.85660  1.0000
  C   C12       1.0  0.54235  0.02470  0.95760  1.0000
  Zn  Zn3       1.0  0.50398  0.83185  0.82516  1.0000
  Zn  Zn4       1.0  0.99602  0.16815  0.17484  1.0000
