data_image0
_chemical_formula_structural       P2O6C2NC4P2O6C2NC4P2O6C2NC4P2O6C2NC4P2O6C2NC4P2O6C2NC4P2O6C2NC4P2O6C2NC4Mg4
_chemical_formula_sum              "P16 O48 C48 N8 Mg4"
_cell_length_a       29.5522
_cell_length_b       8.6174
_cell_length_c       9.703
_cell_angle_alpha    90
_cell_angle_beta     95.4401
_cell_angle_gamma    90

_space_group_name_H-M_alt    "P 1"
_space_group_IT_number       1

loop_
  _space_group_symop_operation_xyz
  'x, y, z'

loop_
  _atom_site_type_symbol
  _atom_site_label
  _atom_site_symmetry_multiplicity
  _atom_site_fract_x
  _atom_site_fract_y
  _atom_site_fract_z
  _atom_site_occupancy
  P   P1        1.0  0.14952  0.57410  0.06110  1.0000
  P   P2        1.0  0.21326  0.98600  0.24010  1.0000
  O   O1        1.0  0.18038  0.67910  0.98310  1.0000
  O   O2        1.0  0.09984  0.56750  0.99510  1.0000
  O   O3        1.0  0.14800  0.61500  0.21090  1.0000
  O   O4        1.0  0.23160  0.07120  0.36760  1.0000
  O   O5        1.0  0.24884  0.87880  0.18640  1.0000
  O   O6        1.0  0.17077  0.90650  0.28050  1.0000
  C   C1        1.0  0.17390  0.38360  0.04030  1.0000
  C   C2        1.0  0.19680  0.12800  0.10770  1.0000
  N   N1        1.0  0.17425  0.27050  0.15630  1.0000
  C   C3        1.0  0.12574  0.23940  0.17670  1.0000
  C   C4        1.0  0.10200  0.14030  0.06520  1.0000
  C   C5        1.0  0.05481  0.10200  0.09030  1.0000
  C   C6        1.0  0.02491  0.00850  0.99040  1.0000
  P   P3        1.0  0.85048  0.42590  0.93890  1.0000
  P   P4        1.0  0.78674  0.01400  0.75990  1.0000
  O   O7        1.0  0.81962  0.32090  0.01690  1.0000
  O   O8        1.0  0.90016  0.43250  0.00490  1.0000
  O   O9        1.0  0.85200  0.38500  0.78910  1.0000
  O   O10       1.0  0.76840  0.92880  0.63240  1.0000
  O   O11       1.0  0.75116  0.12120  0.81360  1.0000
  O   O12       1.0  0.82923  0.09350  0.71950  1.0000
  C   C7        1.0  0.82610  0.61640  0.95970  1.0000
  C   C8        1.0  0.80320  0.87200  0.89230  1.0000
  N   N2        1.0  0.82575  0.72950  0.84370  1.0000
  C   C9        1.0  0.87426  0.76060  0.82330  1.0000
  C   C10       1.0  0.89800  0.85970  0.93480  1.0000
  C   C11       1.0  0.94519  0.89800  0.90970  1.0000
  C   C12       1.0  0.97509  0.99150  0.00960  1.0000
  P   P5        1.0  0.64952  0.07410  0.06110  1.0000
  P   P6        1.0  0.71326  0.48600  0.24010  1.0000
  O   O13       1.0  0.68038  0.17910  0.98310  1.0000
  O   O14       1.0  0.59984  0.06750  0.99510  1.0000
  O   O15       1.0  0.64800  0.11500  0.21090  1.0000
  O   O16       1.0  0.73160  0.57120  0.36760  1.0000
  O   O17       1.0  0.74884  0.37880  0.18640  1.0000
  O   O18       1.0  0.67077  0.40650  0.28050  1.0000
  C   C13       1.0  0.67390  0.88360  0.04030  1.0000
  C   C14       1.0  0.69680  0.62800  0.10770  1.0000
  N   N3        1.0  0.67425  0.77050  0.15630  1.0000
  C   C15       1.0  0.62574  0.73940  0.17670  1.0000
  C   C16       1.0  0.60200  0.64030  0.06520  1.0000
  C   C17       1.0  0.55481  0.60200  0.09030  1.0000
  C   C18       1.0  0.52491  0.50850  0.99040  1.0000
  P   P7        1.0  0.35048  0.92590  0.93890  1.0000
  P   P8        1.0  0.28674  0.51400  0.75990  1.0000
  O   O19       1.0  0.31962  0.82090  0.01690  1.0000
  O   O20       1.0  0.40016  0.93250  0.00490  1.0000
  O   O21       1.0  0.35200  0.88500  0.78910  1.0000
  O   O22       1.0  0.26840  0.42880  0.63240  1.0000
  O   O23       1.0  0.25116  0.62120  0.81360  1.0000
  O   O24       1.0  0.32923  0.59350  0.71950  1.0000
  C   C19       1.0  0.32610  0.11640  0.95970  1.0000
  C   C20       1.0  0.30320  0.37200  0.89230  1.0000
  N   N4        1.0  0.32575  0.22950  0.84370  1.0000
  C   C21       1.0  0.37426  0.26060  0.82330  1.0000
  C   C22       1.0  0.39800  0.35970  0.93480  1.0000
  C   C23       1.0  0.44519  0.39800  0.90970  1.0000
  C   C24       1.0  0.47509  0.49150  0.00960  1.0000
  P   P9        1.0  0.85048  0.57410  0.43890  1.0000
  P   P10       1.0  0.78674  0.98600  0.25990  1.0000
  O   O25       1.0  0.81962  0.67910  0.51690  1.0000
  O   O26       1.0  0.90016  0.56750  0.50490  1.0000
  O   O27       1.0  0.85200  0.61500  0.28910  1.0000
  O   O28       1.0  0.76840  0.07120  0.13240  1.0000
  O   O29       1.0  0.75116  0.87880  0.31360  1.0000
  O   O30       1.0  0.82923  0.90650  0.21950  1.0000
  C   C25       1.0  0.82610  0.38360  0.45970  1.0000
  C   C26       1.0  0.80320  0.12800  0.39230  1.0000
  N   N5        1.0  0.82575  0.27050  0.34370  1.0000
  C   C27       1.0  0.87426  0.23940  0.32330  1.0000
  C   C28       1.0  0.89800  0.14030  0.43480  1.0000
  C   C29       1.0  0.94519  0.10200  0.40970  1.0000
  C   C30       1.0  0.97509  0.00850  0.50960  1.0000
  P   P11       1.0  0.14952  0.42590  0.56110  1.0000
  P   P12       1.0  0.21326  0.01400  0.74010  1.0000
  O   O31       1.0  0.18038  0.32090  0.48310  1.0000
  O   O32       1.0  0.09984  0.43250  0.49510  1.0000
  O   O33       1.0  0.14800  0.38500  0.71090  1.0000
  O   O34       1.0  0.23160  0.92880  0.86760  1.0000
  O   O35       1.0  0.24884  0.12120  0.68640  1.0000
  O   O36       1.0  0.17077  0.09350  0.78050  1.0000
  C   C31       1.0  0.17390  0.61640  0.54030  1.0000
  C   C32       1.0  0.19680  0.87200  0.60770  1.0000
  N   N6        1.0  0.17425  0.72950  0.65630  1.0000
  C   C33       1.0  0.12574  0.76060  0.67670  1.0000
  C   C34       1.0  0.10200  0.85970  0.56520  1.0000
  C   C35       1.0  0.05481  0.89800  0.59030  1.0000
  C   C36       1.0  0.02491  0.99150  0.49040  1.0000
  P   P13       1.0  0.35048  0.07410  0.43890  1.0000
  P   P14       1.0  0.28674  0.48600  0.25990  1.0000
  O   O37       1.0  0.31962  0.17910  0.51690  1.0000
  O   O38       1.0  0.40016  0.06750  0.50490  1.0000
  O   O39       1.0  0.35200  0.11500  0.28910  1.0000
  O   O40       1.0  0.26840  0.57120  0.13240  1.0000
  O   O41       1.0  0.25116  0.37880  0.31360  1.0000
  O   O42       1.0  0.32923  0.40650  0.21950  1.0000
  C   C37       1.0  0.32610  0.88360  0.45970  1.0000
  C   C38       1.0  0.30320  0.62800  0.39230  1.0000
  N   N7        1.0  0.32575  0.77050  0.34370  1.0000
  C   C39       1.0  0.37426  0.73940  0.32330  1.0000
  C   C40       1.0  0.39800  0.64030  0.43480  1.0000
  C   C41       1.0  0.44519  0.60200  0.40970  1.0000
  C   C42       1.0  0.47509  0.50850  0.50960  1.0000
  P   P15       1.0  0.64952  0.92590  0.56110  1.0000
  P   P16       1.0  0.71326  0.51400  0.74010  1.0000
  O   O43       1.0  0.68038  0.82090  0.48310  1.0000
  O   O44       1.0  0.59984  0.93250  0.49510  1.0000
  O   O45       1.0  0.64800  0.88500  0.71090  1.0000
  O   O46       1.0  0.73160  0.42880  0.86760  1.0000
  O   O47       1.0  0.74884  0.62120  0.68640  1.0000
  O   O48       1.0  0.67077  0.59350  0.78050  1.0000
  C   C43       1.0  0.67390  0.11640  0.54030  1.0000
  C   C44       1.0  0.69680  0.37200  0.60770  1.0000
  N   N8        1.0  0.67425  0.22950  0.65630  1.0000
  C   C45       1.0  0.62574  0.26060  0.67670  1.0000
  C   C46       1.0  0.60200  0.35970  0.56520  1.0000
  C   C47       1.0  0.55481  0.39800  0.59030  1.0000
  C   C48       1.0  0.52491  0.49150  0.49040  1.0000
  Mg  Mg1       1.0  0.25000  0.75000  0.00000  1.0000
  Mg  Mg2       1.0  0.75000  0.75000  0.50000  1.0000
  Mg  Mg3       1.0  0.75000  0.25000  0.00000  1.0000
  Mg  Mg4       1.0  0.25000  0.25000  0.50000  1.0000
