data_image0
_chemical_formula_structural       HN2C3HNCHCHCHNCHC2HNCNCNCH2CHNC3N3C2H2C2H2CHN2CHNCHC2N2CHCHCHNC2H2N3HC4HCHCHCHNCHN2C3HNCH2NCHC2HNC2N2CH2C2HC2HNC2HCN3HCHCHCHNCHNCHC2N2CHC4HCH3NC2HN3PO6PO2Mo12Ag8O26Mo12Ag8O26
_chemical_formula_sum              "H50 N40 C70 P2 O60 Mo24 Ag16"
_cell_length_a       14.218
_cell_length_b       14.601
_cell_length_c       19.991
_cell_angle_alpha    108.292
_cell_angle_beta     90.335
_cell_angle_gamma    107.525

_space_group_name_H-M_alt    "P 1"
_space_group_IT_number       1

loop_
  _space_group_symop_operation_xyz
  'x, y, z'

loop_
  _atom_site_type_symbol
  _atom_site_label
  _atom_site_symmetry_multiplicity
  _atom_site_fract_x
  _atom_site_fract_y
  _atom_site_fract_z
  _atom_site_occupancy
  H   H1        1.0  0.13800  0.14390  0.14810  1.0000
  N   N1        1.0  0.16570  0.13740  0.35980  1.0000
  N   N2        1.0  0.14700  0.27060  0.34490  1.0000
  C   C1        1.0  0.18700  0.22360  0.28960  1.0000
  C   C2        1.0  0.28350  0.36190  0.25080  1.0000
  C   C3        1.0  0.21820  0.26490  0.23280  1.0000
  H   H2        1.0  0.30460  0.40000  0.29830  1.0000
  N   N3        1.0  0.19940  0.13930  0.29680  1.0000
  C   C4        1.0  0.28470  0.34890  0.12860  1.0000
  H   H3        1.0  0.30860  0.37560  0.09320  1.0000
  C   C5        1.0  0.21580  0.25470  0.11000  1.0000
  H   H4        1.0  0.19050  0.22010  0.06270  1.0000
  C   C6        1.0  0.31930  0.40480  0.19690  1.0000
  H   H5        1.0  0.36530  0.46960  0.20870  1.0000
  N   N4        1.0  0.13370  0.21390  0.38760  1.0000
  C   C7        1.0  0.18270  0.20950  0.16110  1.0000
  H   H6        1.0  0.38950  0.39780  0.51310  1.0000
  C   C8        1.0  0.45270  0.24440  0.34510  1.0000
  C   C9        1.0  0.40250  0.26020  0.46200  1.0000
  H   H7        1.0  0.46680  0.20540  0.30210  1.0000
  N   N5        1.0  0.36250  0.01760  0.33070  1.0000
  C   C10       1.0  0.45890  0.34530  0.35610  1.0000
  N   N6        1.0  0.42390  0.95980  0.40230  1.0000
  C   C11       1.0  0.41590  0.09610  0.38660  1.0000
  N   N7        1.0  0.45350  0.06150  0.43090  1.0000
  C   C12       1.0  0.42590  0.20290  0.39760  1.0000
  H   H8        1.0  0.38460  0.23220  0.49770  1.0000
  H   H9        1.0  0.47900  0.37410  0.32100  1.0000
  C   C13       1.0  0.43540  0.40190  0.41840  1.0000
  H   H10       1.0  0.43890  0.46900  0.42540  1.0000
  N   N8        1.0  0.36850  0.93420  0.34230  1.0000
  C   C14       1.0  0.40640  0.35930  0.47120  1.0000
  C   C15       1.0  0.88690  0.29550  0.15720  1.0000
  C   C16       1.0  0.78770  0.24720  0.11870  1.0000
  N   N9        1.0  0.01010  0.35190  0.23870  1.0000
  N   N10       1.0  0.91250  0.30320  0.22490  1.0000
  N   N11       1.0  0.96660  0.34170  0.13230  1.0000
  C   C17       1.0  0.72590  0.15510  0.12320  1.0000
  C   C18       1.0  0.75400  0.29250  0.07550  1.0000
  H   H11       1.0  0.74720  0.12420  0.15180  1.0000
  H   H12       1.0  0.79450  0.35400  0.07260  1.0000
  C   C19       1.0  0.66070  0.24650  0.03700  1.0000
  C   C20       1.0  0.60110  0.15610  0.04180  1.0000
  H   H13       1.0  0.63900  0.27690  0.00820  1.0000
  H   H14       1.0  0.53860  0.12480  0.01610  1.0000
  C   C21       1.0  0.63400  0.11060  0.08520  1.0000
  H   H15       1.0  0.59300  0.04930  0.08840  1.0000
  N   N12       1.0  0.04160  0.37520  0.18490  1.0000
  N   N13       1.0  0.07510  0.57190  0.09580  1.0000
  C   C22       1.0  0.33190  0.98560  0.12470  1.0000
  H   H16       1.0  0.39460  0.02890  0.14630  1.0000
  N   N14       1.0  0.18140  0.70700  0.17040  1.0000
  C   C23       1.0  0.14330  0.85750  0.06070  1.0000
  H   H17       1.0  0.07990  0.81560  0.03970  1.0000
  C   C24       1.0  0.19550  0.82800  0.10400  1.0000
  C   C25       1.0  0.15480  0.72970  0.11430  1.0000
  N   N15       1.0  0.08910  0.64640  0.06730  1.0000
  N   N16       1.0  0.13010  0.60780  0.15690  1.0000
  C   C26       1.0  0.18490  0.94990  0.04800  1.0000
  H   H18       1.0  0.14990  0.96770  0.01740  1.0000
  C   C27       1.0  0.27620  0.01370  0.08040  1.0000
  H   H19       1.0  0.30210  0.07600  0.07330  1.0000
  C   C28       1.0  0.29280  0.89360  0.13580  1.0000
  H   H20       1.0  0.32980  0.87420  0.16410  1.0000
  N   N17       1.0  0.29930  0.68790  0.34570  1.0000
  C   C29       1.0  0.27800  0.63300  0.50750  1.0000
  C   C30       1.0  0.25710  0.53980  0.51910  1.0000
  H   H21       1.0  0.24010  0.47900  0.48120  1.0000
  H   H22       1.0  0.29060  0.62720  0.69210  1.0000
  N   N18       1.0  0.24430  0.59300  0.32280  1.0000
  N   N19       1.0  0.22590  0.55780  0.37640  1.0000
  N   N20       1.0  0.32050  0.71660  0.41530  1.0000
  H   H23       1.0  0.31640  0.77820  0.67270  1.0000
  C   C31       1.0  0.30250  0.71830  0.63440  1.0000
  C   C32       1.0  0.28610  0.62870  0.64600  1.0000
  C   C33       1.0  0.27570  0.63610  0.43400  1.0000
  C   C34       1.0  0.29900  0.72220  0.56570  1.0000
  H   H24       1.0  0.31080  0.78450  0.55850  1.0000
  C   C35       1.0  0.26260  0.53990  0.58930  1.0000
  H   H25       1.0  0.24990  0.47840  0.59760  1.0000
  C   C36       1.0  0.78420  0.74530  0.89000  1.0000
  H   H26       1.0  0.80950  0.77990  0.93730  1.0000
  C   C37       1.0  0.68070  0.59520  0.80310  1.0000
  H   H27       1.0  0.63470  0.53040  0.79130  1.0000
  N   N21       1.0  0.86630  0.78610  0.61240  1.0000
  C   C38       1.0  0.81730  0.79050  0.83890  1.0000
  H   H28       1.0  0.86200  0.85610  0.85190  1.0000
  N   N22       1.0  0.83430  0.86260  0.64020  1.0000
  N   N23       1.0  0.85300  0.72940  0.65510  1.0000
  C   C39       1.0  0.81300  0.77640  0.71040  1.0000
  C   C40       1.0  0.71650  0.63810  0.74920  1.0000
  C   C41       1.0  0.78180  0.73510  0.76720  1.0000
  H   H29       1.0  0.69540  0.60000  0.70170  1.0000
  N   N24       1.0  0.80060  0.86070  0.70320  1.0000
  C   C42       1.0  0.71530  0.65110  0.87140  1.0000
  H   H30       1.0  0.69140  0.62440  0.90680  1.0000
  H   H31       1.0  0.56110  0.53100  0.57460  1.0000
  N   N25       1.0  0.63150  0.06580  0.65770  1.0000
  C   C43       1.0  0.59360  0.64070  0.52880  1.0000
  H   H32       1.0  0.61050  0.60220  0.48690  1.0000
  C   C44       1.0  0.54730  0.75560  0.65490  1.0000
  C   C45       1.0  0.59750  0.73980  0.53800  1.0000
  H   H33       1.0  0.53320  0.79460  0.69790  1.0000
  N   N26       1.0  0.63750  0.98240  0.66930  1.0000
  C   C46       1.0  0.54110  0.65470  0.64390  1.0000
  C   C47       1.0  0.58410  0.90390  0.61340  1.0000
  N   N27       1.0  0.57610  0.04020  0.59770  1.0000
  N   N28       1.0  0.54650  0.93850  0.56910  1.0000
  C   C48       1.0  0.57410  0.79710  0.60240  1.0000
  H   H34       1.0  0.61540  0.76780  0.50230  1.0000
  H   H35       1.0  0.52100  0.62590  0.67900  1.0000
  C   C49       1.0  0.56460  0.59810  0.58160  1.0000
  C   C50       1.0  0.33930  0.75350  0.96300  1.0000
  H   H36       1.0  0.36100  0.72310  0.99180  1.0000
  C   C51       1.0  0.27410  0.84490  0.87680  1.0000
  C   C52       1.0  0.36600  0.88940  0.91480  1.0000
  H   H37       1.0  0.40700  0.95070  0.91160  1.0000
  N   N29       1.0  0.95840  0.62480  0.81510  1.0000
  C   C53       1.0  0.39890  0.84390  0.95820  1.0000
  C   C54       1.0  0.11310  0.70450  0.84280  1.0000
  H   H38       1.0  0.46140  0.87520  0.98390  1.0000
  C   C55       1.0  0.21230  0.75280  0.88130  1.0000
  N   N30       1.0  0.98990  0.64810  0.76130  1.0000
  N   N31       1.0  0.08750  0.69680  0.77510  1.0000
  N   N32       1.0  0.03340  0.65830  0.86770  1.0000
  H   H39       1.0  0.25280  0.87580  0.84820  1.0000
  C   C56       1.0  0.24600  0.70750  0.92450  1.0000
  H   H40       1.0  0.20550  0.64600  0.92740  1.0000
  C   C57       1.0  0.72380  0.98630  0.91960  1.0000
  H   H41       1.0  0.69790  0.92400  0.92670  1.0000
  C   C58       1.0  0.70720  0.10640  0.86420  1.0000
  H   H42       1.0  0.67020  0.12580  0.83590  1.0000
  N   N33       1.0  0.92490  0.42810  0.90420  1.0000
  C   C59       1.0  0.66810  0.01440  0.87530  1.0000
  H   H43       1.0  0.60540  0.97110  0.85370  1.0000
  N   N34       1.0  0.81860  0.29300  0.82960  1.0000
  C   C60       1.0  0.85670  0.14250  0.93930  1.0000
  H   H44       1.0  0.92010  0.18440  0.96030  1.0000
  C   C61       1.0  0.80450  0.17200  0.89600  1.0000
  C   C62       1.0  0.84520  0.27030  0.88570  1.0000
  N   N35       1.0  0.91090  0.35360  0.93270  1.0000
  N   N36       1.0  0.86990  0.39220  0.84310  1.0000
  C   C63       1.0  0.81510  0.05010  0.95200  1.0000
  H   H45       1.0  0.85010  0.03230  0.98260  1.0000
  C   C64       1.0  0.69750  0.28170  0.36560  1.0000
  C   C65       1.0  0.71390  0.37130  0.35400  1.0000
  C   C66       1.0  0.72430  0.36390  0.56600  1.0000
  C   C67       1.0  0.70100  0.27780  0.43430  1.0000
  H   H46       1.0  0.68920  0.21550  0.44150  1.0000
  C   C68       1.0  0.73740  0.46010  0.41070  1.0000
  H   H47       1.0  0.68360  0.22180  0.32730  1.0000
  H   H48       1.0  0.75010  0.52160  0.40240  1.0000
  H   H49       1.0  0.70940  0.37280  0.30790  1.0000
  N   N37       1.0  0.70070  0.31210  0.65430  1.0000
  C   C69       1.0  0.72200  0.36700  0.49250  1.0000
  C   C70       1.0  0.74290  0.46020  0.48090  1.0000
  H   H50       1.0  0.75990  0.52100  0.51880  1.0000
  N   N38       1.0  0.75570  0.40700  0.67720  1.0000
  N   N39       1.0  0.77410  0.44220  0.62360  1.0000
  N   N40       1.0  0.67950  0.28340  0.58470  1.0000
  P   P1        1.0  0.72480  0.76960  0.21572  1.0000
  O   O1        1.0  0.82130  0.85330  0.21760  1.0000
  O   O2        1.0  0.70370  0.77500  0.29230  1.0000
  O   O3        1.0  0.63930  0.78470  0.17850  1.0000
  O   O4        1.0  0.73580  0.66540  0.17550  1.0000
  O   O5        1.0  0.36070  0.21530  0.82150  1.0000
  O   O6        1.0  0.26420  0.33460  0.82450  1.0000
  P   P2        1.0  0.27520  0.23040  0.78428  1.0000
  O   O7        1.0  0.17870  0.14670  0.78240  1.0000
  O   O8        1.0  0.29630  0.22500  0.70770  1.0000
  Mo  Mo1       1.0  0.78041  0.61416  0.05509  1.0000
  Mo  Mo2       1.0  0.60541  0.50185  0.14584  1.0000
  Mo  Mo3       1.0  0.56706  0.65573  0.32432  1.0000
  Mo  Mo4       1.0  0.58946  0.93742  0.21195  1.0000
  Mo  Mo5       1.0  0.98602  0.86504  0.26009  1.0000
  Mo  Mo6       1.0  0.81485  0.76503  0.37891  1.0000
  Mo  Mo7       1.0  0.88980  0.89579  0.11516  1.0000
  Mo  Mo8       1.0  0.85706  0.03394  0.27862  1.0000
  Mo  Mo9       1.0  0.84942  0.58868  0.20904  1.0000
  Mo  Mo10      1.0  0.46543  0.68262  0.16392  1.0000
  Mo  Mo11      1.0  0.62161  0.77528  0.05603  1.0000
  Mo  Mo12      1.0  0.67163  0.91469  0.38056  1.0000
  Ag  Ag1       1.0  0.86367  0.32297  0.33331  1.0000
  Ag  Ag2       1.0  0.09981  0.40570  0.35426  1.0000
  Ag  Ag3       1.0  0.19023  0.50652  0.20430  1.0000
  Ag  Ag4       1.0  0.26561  0.02209  0.23969  1.0000
  Ag  Ag5       1.0  0.98188  0.40251  0.04157  1.0000
  Ag  Ag6       1.0  0.28269  0.78082  0.26916  1.0000
  Ag  Ag7       1.0  0.55670  0.14021  0.52897  1.0000
  Ag  Ag8       1.0  0.00552  0.20716  0.45248  1.0000
  O   O9        1.0  0.87430  0.75120  0.44580  1.0000
  O   O10       1.0  0.89540  0.16310  0.31610  1.0000
  O   O11       1.0  0.99880  0.89010  0.17580  1.0000
  O   O12       1.0  0.52070  0.57070  0.13280  1.0000
  O   O13       1.0  0.46830  0.81950  0.19530  1.0000
  O   O14       1.0  0.49200  0.68280  0.25450  1.0000
  O   O15       1.0  0.59090  0.89840  0.11560  1.0000
  O   O16       1.0  0.68000  0.67380  0.38030  1.0000
  O   O17       1.0  0.57730  0.79850  0.38500  1.0000
  O   O18       1.0  0.85550  0.57100  0.10840  1.0000
  O   O19       1.0  0.91560  0.84230  0.34200  1.0000
  O   O20       1.0  0.96710  0.00060  0.29940  1.0000
  O   O21       1.0  0.67480  0.66960  0.03710  1.0000
  O   O22       1.0  0.94560  0.72600  0.22240  1.0000
  O   O23       1.0  0.60170  0.92440  0.30680  1.0000
  O   O24       1.0  0.89800  0.01930  0.18350  1.0000
  O   O25       1.0  0.76880  0.87220  0.42590  1.0000
  O   O26       1.0  0.78900  0.99250  0.34890  1.0000
  O   O27       1.0  0.86340  0.74600  0.07860  1.0000
  O   O28       1.0  0.49790  0.70050  0.07170  1.0000
  O   O29       1.0  0.82300  0.64890  0.30010  1.0000
  O   O30       1.0  0.72560  0.00620  0.23310  1.0000
  O   O31       1.0  0.66550  0.50160  0.06380  1.0000
  O   O32       1.0  0.76000  0.86580  0.08250  1.0000
  O   O33       1.0  0.58790  0.55690  0.24820  1.0000
  O   O34       1.0  0.72750  0.48780  0.18480  1.0000
  Mo  Mo13      1.0  0.21959  0.38584  0.94491  1.0000
  Mo  Mo14      1.0  0.39459  0.49815  0.85416  1.0000
  Mo  Mo15      1.0  0.43294  0.34427  0.67568  1.0000
  Mo  Mo16      1.0  0.41054  0.06258  0.78805  1.0000
  Mo  Mo17      1.0  0.01398  0.13496  0.73991  1.0000
  Mo  Mo18      1.0  0.18515  0.23497  0.62109  1.0000
  Mo  Mo19      1.0  0.11020  0.10421  0.88484  1.0000
  Mo  Mo20      1.0  0.14294  0.96606  0.72138  1.0000
  Mo  Mo21      1.0  0.15058  0.41132  0.79096  1.0000
  Mo  Mo22      1.0  0.53457  0.31738  0.83608  1.0000
  Mo  Mo23      1.0  0.37839  0.22472  0.94397  1.0000
  Mo  Mo24      1.0  0.32837  0.08531  0.61944  1.0000
  Ag  Ag9       1.0  0.13633  0.67703  0.66669  1.0000
  Ag  Ag10      1.0  0.90019  0.59430  0.64574  1.0000
  Ag  Ag11      1.0  0.80977  0.49348  0.79570  1.0000
  Ag  Ag12      1.0  0.73439  0.97791  0.76031  1.0000
  Ag  Ag13      1.0  0.01812  0.59749  0.95843  1.0000
  Ag  Ag14      1.0  0.71731  0.21918  0.73084  1.0000
  Ag  Ag15      1.0  0.44330  0.85979  0.47103  1.0000
  Ag  Ag16      1.0  0.99448  0.79284  0.54752  1.0000
  O   O35       1.0  0.12570  0.24880  0.55420  1.0000
  O   O36       1.0  0.10460  0.83690  0.68390  1.0000
  O   O37       1.0  0.00120  0.10990  0.82420  1.0000
  O   O38       1.0  0.47930  0.42930  0.86720  1.0000
  O   O39       1.0  0.53170  0.18050  0.80470  1.0000
  O   O40       1.0  0.50800  0.31720  0.74550  1.0000
  O   O41       1.0  0.40910  0.10160  0.88440  1.0000
  O   O42       1.0  0.32000  0.32620  0.61970  1.0000
  O   O43       1.0  0.42270  0.20150  0.61500  1.0000
  O   O44       1.0  0.14450  0.42900  0.89160  1.0000
  O   O45       1.0  0.08440  0.15770  0.65800  1.0000
  O   O46       1.0  0.03290  0.99940  0.70060  1.0000
  O   O47       1.0  0.32520  0.33040  0.96290  1.0000
  O   O48       1.0  0.05440  0.27400  0.77760  1.0000
  O   O49       1.0  0.39830  0.07560  0.69320  1.0000
  O   O50       1.0  0.10200  0.98070  0.81650  1.0000
  O   O51       1.0  0.23120  0.12780  0.57410  1.0000
  O   O52       1.0  0.21100  0.00750  0.65110  1.0000
  O   O53       1.0  0.13660  0.25400  0.92140  1.0000
  O   O54       1.0  0.50210  0.29950  0.92830  1.0000
  O   O55       1.0  0.17700  0.35110  0.69990  1.0000
  O   O56       1.0  0.27440  0.99380  0.76690  1.0000
  O   O57       1.0  0.33450  0.49840  0.93620  1.0000
  O   O58       1.0  0.24000  0.13420  0.91750  1.0000
  O   O59       1.0  0.41210  0.44310  0.75180  1.0000
  O   O60       1.0  0.27250  0.51220  0.81520  1.0000
