data_image0
_chemical_formula_structural       O4C5O4C5O4C5O3C5O5C5O4C5OAl2O4Al3OAlO4C5O4C5O4C5O3C5O5C5O4C5OAl2O4Al3OAl
_chemical_formula_sum              "O60 C60 Al12"
_cell_length_a       16.8912
_cell_length_b       16.8912
_cell_length_c       13.3394
_cell_angle_alpha    90
_cell_angle_beta     90
_cell_angle_gamma    120

_space_group_name_H-M_alt    "P 1"
_space_group_IT_number       1

loop_
  _space_group_symop_operation_xyz
  'x, y, z'

loop_
  _atom_site_type_symbol
  _atom_site_label
  _atom_site_symmetry_multiplicity
  _atom_site_fract_x
  _atom_site_fract_y
  _atom_site_fract_z
  _atom_site_occupancy
  O   O1        1.0  0.51340  0.61480  0.20788  1.0000
  O   O2        1.0  0.52411  0.62040  0.03076  1.0000
  O   O3        1.0  0.55552  0.93128  0.04650  1.0000
  O   O4        1.0  0.55132  0.93050  0.20333  1.0000
  C   C1        1.0  0.55306  0.89294  0.12555  1.0000
  C   C2        1.0  0.52334  0.64192  0.11947  1.0000
  C   C3        1.0  0.51272  0.72671  0.11645  1.0000
  C   C4        1.0  0.57233  0.81438  0.10995  1.0000
  C   C5        1.0  0.67098  0.84660  0.11805  1.0000
  O   O5        1.0  0.38520  0.89860  0.20788  1.0000
  O   O6        1.0  0.37960  0.90371  0.03076  1.0000
  O   O7        1.0  0.06872  0.62424  0.04650  1.0000
  O   O8        1.0  0.06950  0.62082  0.20333  1.0000
  C   C6        1.0  0.10706  0.66012  0.12555  1.0000
  C   C7        1.0  0.35808  0.88142  0.11947  1.0000
  C   C8        1.0  0.27329  0.78601  0.11645  1.0000
  C   C9        1.0  0.18562  0.75795  0.10995  1.0000
  C   C10       1.0  0.15340  0.82438  0.11805  1.0000
  O   O9        1.0  0.10140  0.48660  0.20788  1.0000
  O   O10       1.0  0.09629  0.47589  0.03076  1.0000
  O   O11       1.0  0.37576  0.44448  0.04650  1.0000
  O   O12       1.0  0.37918  0.44868  0.20333  1.0000
  C   C11       1.0  0.33988  0.44694  0.12555  1.0000
  C   C12       1.0  0.11858  0.47666  0.11947  1.0000
  C   C13       1.0  0.21399  0.48728  0.11645  1.0000
  C   C14       1.0  0.24205  0.42767  0.10995  1.0000
  C   C15       1.0  0.17562  0.32902  0.11805  1.0000
  O   O13       1.0  0.47589  0.37960  0.46925  1.0000
  O   O14       1.0  0.44448  0.06872  0.45350  1.0000
  O   O15       1.0  0.44868  0.06950  0.29668  1.0000
  C   C16       1.0  0.44694  0.10706  0.37445  1.0000
  C   C17       1.0  0.47666  0.35808  0.38053  1.0000
  C   C18       1.0  0.48728  0.27329  0.38355  1.0000
  C   C19       1.0  0.42767  0.18562  0.39005  1.0000
  C   C20       1.0  0.32902  0.15340  0.38195  1.0000
  O   O16       1.0  0.48660  0.38520  0.29212  1.0000
  O   O17       1.0  0.61480  0.10140  0.29212  1.0000
  O   O18       1.0  0.62040  0.09629  0.46925  1.0000
  O   O19       1.0  0.93128  0.37576  0.45350  1.0000
  O   O20       1.0  0.93050  0.37918  0.29668  1.0000
  C   C21       1.0  0.89294  0.33988  0.37445  1.0000
  C   C22       1.0  0.64192  0.11858  0.38053  1.0000
  C   C23       1.0  0.72671  0.21399  0.38355  1.0000
  C   C24       1.0  0.81438  0.24205  0.39005  1.0000
  C   C25       1.0  0.84660  0.17562  0.38195  1.0000
  O   O21       1.0  0.89860  0.51340  0.29212  1.0000
  O   O22       1.0  0.90371  0.52411  0.46925  1.0000
  O   O23       1.0  0.62424  0.55552  0.45350  1.0000
  O   O24       1.0  0.62082  0.55132  0.29668  1.0000
  C   C26       1.0  0.66012  0.55306  0.37445  1.0000
  C   C27       1.0  0.88142  0.52334  0.38053  1.0000
  C   C28       1.0  0.78601  0.51272  0.38355  1.0000
  C   C29       1.0  0.75795  0.57233  0.39005  1.0000
  C   C30       1.0  0.82438  0.67098  0.38195  1.0000
  O   O25       1.0  0.53875  0.48711  0.12432  1.0000
  Al  Al1       1.0  0.50000  0.00000  0.25000  1.0000
  Al  Al2       1.0  0.00000  0.50000  0.25000  1.0000
  O   O26       1.0  0.48711  0.94836  0.37568  1.0000
  O   O27       1.0  0.51289  0.05164  0.12432  1.0000
  O   O28       1.0  0.05164  0.53875  0.37568  1.0000
  O   O29       1.0  0.94836  0.46125  0.12432  1.0000
  Al  Al3       1.0  0.00000  0.50000  0.00000  1.0000
  Al  Al4       1.0  0.50000  0.50000  0.00000  1.0000
  Al  Al5       1.0  0.50000  0.00000  0.00000  1.0000
  O   O30       1.0  0.46125  0.51289  0.37568  1.0000
  Al  Al6       1.0  0.50000  0.50000  0.25000  1.0000
  O   O31       1.0  0.51340  0.61480  0.70788  1.0000
  O   O32       1.0  0.52411  0.62040  0.53075  1.0000
  O   O33       1.0  0.55552  0.93128  0.54650  1.0000
  O   O34       1.0  0.55132  0.93050  0.70332  1.0000
  C   C31       1.0  0.55306  0.89294  0.62555  1.0000
  C   C32       1.0  0.52334  0.64192  0.61947  1.0000
  C   C33       1.0  0.51272  0.72671  0.61645  1.0000
  C   C34       1.0  0.57233  0.81438  0.60995  1.0000
  C   C35       1.0  0.67098  0.84660  0.61805  1.0000
  O   O35       1.0  0.38520  0.89860  0.70788  1.0000
  O   O36       1.0  0.37960  0.90371  0.53075  1.0000
  O   O37       1.0  0.06872  0.62424  0.54650  1.0000
  O   O38       1.0  0.06950  0.62082  0.70332  1.0000
  C   C36       1.0  0.10706  0.66012  0.62555  1.0000
  C   C37       1.0  0.35808  0.88142  0.61947  1.0000
  C   C38       1.0  0.27329  0.78601  0.61645  1.0000
  C   C39       1.0  0.18562  0.75795  0.60995  1.0000
  C   C40       1.0  0.15340  0.82438  0.61805  1.0000
  O   O39       1.0  0.10140  0.48660  0.70788  1.0000
  O   O40       1.0  0.09629  0.47589  0.53075  1.0000
  O   O41       1.0  0.37576  0.44448  0.54650  1.0000
  O   O42       1.0  0.37918  0.44868  0.70332  1.0000
  C   C41       1.0  0.33988  0.44694  0.62555  1.0000
  C   C42       1.0  0.11858  0.47666  0.61947  1.0000
  C   C43       1.0  0.21399  0.48728  0.61645  1.0000
  C   C44       1.0  0.24205  0.42767  0.60995  1.0000
  C   C45       1.0  0.17562  0.32902  0.61805  1.0000
  O   O43       1.0  0.47589  0.37960  0.96925  1.0000
  O   O44       1.0  0.44448  0.06872  0.95350  1.0000
  O   O45       1.0  0.44868  0.06950  0.79668  1.0000
  C   C46       1.0  0.44694  0.10706  0.87445  1.0000
  C   C47       1.0  0.47666  0.35808  0.88053  1.0000
  C   C48       1.0  0.48728  0.27329  0.88355  1.0000
  C   C49       1.0  0.42767  0.18562  0.89005  1.0000
  C   C50       1.0  0.32902  0.15340  0.88195  1.0000
  O   O46       1.0  0.48660  0.38520  0.79212  1.0000
  O   O47       1.0  0.61480  0.10140  0.79212  1.0000
  O   O48       1.0  0.62040  0.09629  0.96925  1.0000
  O   O49       1.0  0.93128  0.37576  0.95350  1.0000
  O   O50       1.0  0.93050  0.37918  0.79668  1.0000
  C   C51       1.0  0.89294  0.33988  0.87445  1.0000
  C   C52       1.0  0.64192  0.11858  0.88053  1.0000
  C   C53       1.0  0.72671  0.21399  0.88355  1.0000
  C   C54       1.0  0.81438  0.24205  0.89005  1.0000
  C   C55       1.0  0.84660  0.17562  0.88195  1.0000
  O   O51       1.0  0.89860  0.51340  0.79212  1.0000
  O   O52       1.0  0.90371  0.52411  0.96925  1.0000
  O   O53       1.0  0.62424  0.55552  0.95350  1.0000
  O   O54       1.0  0.62082  0.55132  0.79668  1.0000
  C   C56       1.0  0.66012  0.55306  0.87445  1.0000
  C   C57       1.0  0.88142  0.52334  0.88053  1.0000
  C   C58       1.0  0.78601  0.51272  0.88355  1.0000
  C   C59       1.0  0.75795  0.57233  0.89005  1.0000
  C   C60       1.0  0.82438  0.67098  0.88195  1.0000
  O   O55       1.0  0.53875  0.48711  0.62432  1.0000
  Al  Al7       1.0  0.50000  0.00000  0.75000  1.0000
  Al  Al8       1.0  0.00000  0.50000  0.75000  1.0000
  O   O56       1.0  0.48711  0.94836  0.87568  1.0000
  O   O57       1.0  0.51289  0.05164  0.62432  1.0000
  O   O58       1.0  0.05164  0.53875  0.87568  1.0000
  O   O59       1.0  0.94836  0.46125  0.62432  1.0000
  Al  Al9       1.0  0.00000  0.50000  0.50000  1.0000
  Al  Al10      1.0  0.50000  0.50000  0.50000  1.0000
  Al  Al11      1.0  0.50000  0.00000  0.50000  1.0000
  O   O60       1.0  0.46125  0.51289  0.87568  1.0000
  Al  Al12      1.0  0.50000  0.50000  0.75000  1.0000
