data_image0
_chemical_formula_structural       O2C2O4COCO2COCO4C2O6C2O3COCO3COCO2CO2C2O2CO2CO2CO3COCO3COCO2Zn8
_chemical_formula_sum              "O48 C24 Zn8"
_cell_length_a       15.371
_cell_length_b       15.371
_cell_length_c       15.371
_cell_angle_alpha    90
_cell_angle_beta     90
_cell_angle_gamma    90

_space_group_name_H-M_alt    "P 1"
_space_group_IT_number       1

loop_
  _space_group_symop_operation_xyz
  'x, y, z'

loop_
  _atom_site_type_symbol
  _atom_site_label
  _atom_site_symmetry_multiplicity
  _atom_site_fract_x
  _atom_site_fract_y
  _atom_site_fract_z
  _atom_site_occupancy
  O   O1        1.0  0.98890  0.63630  0.87890  1.0000
  O   O2        1.0  0.01110  0.86370  0.87890  1.0000
  C   C1        1.0  0.03670  0.78670  0.87500  1.0000
  C   C2        1.0  0.96330  0.71330  0.87500  1.0000
  O   O3        1.0  0.88630  0.73890  0.87110  1.0000
  O   O4        1.0  0.11370  0.76110  0.87110  1.0000
  O   O5        1.0  0.48890  0.13630  0.37890  1.0000
  O   O6        1.0  0.51110  0.36370  0.37890  1.0000
  C   C3        1.0  0.46330  0.21330  0.37500  1.0000
  O   O7        1.0  0.38630  0.23890  0.37110  1.0000
  C   C4        1.0  0.53670  0.28670  0.37500  1.0000
  O   O8        1.0  0.61370  0.26110  0.37110  1.0000
  O   O9        1.0  0.01110  0.13630  0.62110  1.0000
  C   C5        1.0  0.96330  0.28670  0.62500  1.0000
  O   O10       1.0  0.98890  0.36370  0.62110  1.0000
  C   C6        1.0  0.03670  0.21330  0.62500  1.0000
  O   O11       1.0  0.88630  0.26110  0.62890  1.0000
  O   O12       1.0  0.11370  0.23890  0.62890  1.0000
  O   O13       1.0  0.51110  0.63630  0.12110  1.0000
  O   O14       1.0  0.48890  0.86370  0.12110  1.0000
  C   C7        1.0  0.53670  0.71330  0.12500  1.0000
  C   C8        1.0  0.46330  0.78670  0.12500  1.0000
  O   O15       1.0  0.38630  0.76110  0.12890  1.0000
  O   O16       1.0  0.61370  0.73890  0.12890  1.0000
  O   O17       1.0  0.87890  0.98890  0.63630  1.0000
  O   O18       1.0  0.87890  0.01110  0.86370  1.0000
  O   O19       1.0  0.87110  0.88630  0.73890  1.0000
  O   O20       1.0  0.87110  0.11370  0.76110  1.0000
  C   C9        1.0  0.87500  0.03670  0.78670  1.0000
  C   C10       1.0  0.87500  0.96330  0.71330  1.0000
  O   O21       1.0  0.37890  0.48890  0.13630  1.0000
  O   O22       1.0  0.37890  0.51110  0.36370  1.0000
  O   O23       1.0  0.37110  0.38630  0.23890  1.0000
  C   C11       1.0  0.37500  0.46330  0.21330  1.0000
  O   O24       1.0  0.37110  0.61370  0.26110  1.0000
  C   C12       1.0  0.37500  0.53670  0.28670  1.0000
  O   O25       1.0  0.62890  0.88630  0.26110  1.0000
  O   O26       1.0  0.62890  0.11370  0.23890  1.0000
  O   O27       1.0  0.62110  0.01110  0.13630  1.0000
  C   C13       1.0  0.62500  0.96330  0.28670  1.0000
  O   O28       1.0  0.62110  0.98890  0.36370  1.0000
  C   C14       1.0  0.62500  0.03670  0.21330  1.0000
  O   O29       1.0  0.12890  0.38630  0.76110  1.0000
  O   O30       1.0  0.12890  0.61370  0.73890  1.0000
  C   C15       1.0  0.12500  0.53670  0.71330  1.0000
  O   O31       1.0  0.12110  0.51110  0.63630  1.0000
  O   O32       1.0  0.12110  0.48890  0.86370  1.0000
  C   C16       1.0  0.12500  0.46330  0.78670  1.0000
  C   C17       1.0  0.71330  0.87500  0.96330  1.0000
  O   O33       1.0  0.76110  0.87110  0.11370  1.0000
  O   O34       1.0  0.73890  0.87110  0.88630  1.0000
  C   C18       1.0  0.78670  0.87500  0.03670  1.0000
  O   O35       1.0  0.63630  0.87890  0.98890  1.0000
  O   O36       1.0  0.86370  0.87890  0.01110  1.0000
  C   C19       1.0  0.28670  0.37500  0.53670  1.0000
  O   O37       1.0  0.26110  0.37110  0.61370  1.0000
  O   O38       1.0  0.23890  0.37110  0.38630  1.0000
  C   C20       1.0  0.21330  0.37500  0.46330  1.0000
  O   O39       1.0  0.13630  0.37890  0.48890  1.0000
  O   O40       1.0  0.36370  0.37890  0.51110  1.0000
  O   O41       1.0  0.23890  0.62890  0.11370  1.0000
  C   C21       1.0  0.21330  0.62500  0.03670  1.0000
  O   O42       1.0  0.26110  0.62890  0.88630  1.0000
  C   C22       1.0  0.28670  0.62500  0.96330  1.0000
  O   O43       1.0  0.13630  0.62110  0.01110  1.0000
  O   O44       1.0  0.36370  0.62110  0.98890  1.0000
  O   O45       1.0  0.73890  0.12890  0.61370  1.0000
  C   C23       1.0  0.78670  0.12500  0.46330  1.0000
  O   O46       1.0  0.76110  0.12890  0.38630  1.0000
  C   C24       1.0  0.71330  0.12500  0.53670  1.0000
  O   O47       1.0  0.63630  0.12110  0.51110  1.0000
  O   O48       1.0  0.86370  0.12110  0.48890  1.0000
  Zn  Zn1       1.0  0.12500  0.62500  0.87500  1.0000
  Zn  Zn2       1.0  0.62500  0.12500  0.37500  1.0000
  Zn  Zn3       1.0  0.37500  0.37500  0.37500  1.0000
  Zn  Zn4       1.0  0.87500  0.87500  0.87500  1.0000
  Zn  Zn5       1.0  0.87500  0.12500  0.62500  1.0000
  Zn  Zn6       1.0  0.37500  0.62500  0.12500  1.0000
  Zn  Zn7       1.0  0.62500  0.87500  0.12500  1.0000
  Zn  Zn8       1.0  0.12500  0.37500  0.62500  1.0000
