data_image0
_chemical_formula_structural       OCOC3NC2H4OCOC3NC2H4OCOC3NC2H4OCOC3NC2H4SCNSCNSCNSCNMn2OCOC3NC2H4OCOC3NC2H4OCOC3NC2H4OCOC3NC2H4SCNSCNSCNSCNMn2
_chemical_formula_sum              "O16 C56 N16 H32 S8 Mn4"
_cell_length_a       9.723
_cell_length_b       14.061
_cell_length_c       14.3032
_cell_angle_alpha    90
_cell_angle_beta     97.92
_cell_angle_gamma    90

_space_group_name_H-M_alt    "P 1"
_space_group_IT_number       1

loop_
  _space_group_symop_operation_xyz
  'x, y, z'

loop_
  _atom_site_type_symbol
  _atom_site_label
  _atom_site_symmetry_multiplicity
  _atom_site_fract_x
  _atom_site_fract_y
  _atom_site_fract_z
  _atom_site_occupancy
  O   O1        1.0  0.13000  0.49700  0.39650  1.0000
  C   C1        1.0  0.20200  0.43800  0.44500  1.0000
  O   O2        1.0  0.31900  0.45400  0.48950  1.0000
  C   C2        1.0  0.13800  0.34000  0.45350  1.0000
  C   C3        1.0  0.00700  0.31700  0.47350  1.0000
  C   C4        1.0  0.97100  0.22300  0.48150  1.0000
  N   N1        1.0  0.06200  0.15300  0.47000  1.0000
  C   C5        1.0  0.18900  0.17400  0.45100  1.0000
  C   C6        1.0  0.22900  0.26700  0.44250  1.0000
  H   H1        1.0  0.94105  0.36663  0.48159  1.0000
  H   H2        1.0  0.88041  0.20691  0.49530  1.0000
  H   H3        1.0  0.25338  0.12338  0.44300  1.0000
  H   H4        1.0  0.32055  0.28153  0.42835  1.0000
  O   O3        1.0  0.87000  0.99700  0.35350  1.0000
  C   C7        1.0  0.79800  0.93800  0.30500  1.0000
  O   O4        1.0  0.68100  0.95400  0.26050  1.0000
  C   C8        1.0  0.86200  0.84000  0.29650  1.0000
  C   C9        1.0  0.99300  0.81700  0.27650  1.0000
  C   C10       1.0  0.02900  0.72300  0.26850  1.0000
  N   N2        1.0  0.93800  0.65300  0.28000  1.0000
  C   C11       1.0  0.81100  0.67400  0.29900  1.0000
  C   C12       1.0  0.77100  0.76700  0.30750  1.0000
  H   H5        1.0  0.05895  0.86663  0.26841  1.0000
  H   H6        1.0  0.11959  0.70691  0.25470  1.0000
  H   H7        1.0  0.74662  0.62338  0.30700  1.0000
  H   H8        1.0  0.67945  0.78153  0.32165  1.0000
  O   O5        1.0  0.87000  0.50300  0.10350  1.0000
  C   C13       1.0  0.79800  0.56200  0.05500  1.0000
  O   O6        1.0  0.68100  0.54600  0.01050  1.0000
  C   C14       1.0  0.86200  0.66000  0.04650  1.0000
  C   C15       1.0  0.99300  0.68300  0.02650  1.0000
  C   C16       1.0  0.02900  0.77700  0.01850  1.0000
  N   N3        1.0  0.93800  0.84700  0.03000  1.0000
  C   C17       1.0  0.81100  0.82600  0.04900  1.0000
  C   C18       1.0  0.77100  0.73300  0.05750  1.0000
  H   H9        1.0  0.05895  0.63337  0.01841  1.0000
  H   H10       1.0  0.11959  0.79309  0.00470  1.0000
  H   H11       1.0  0.74662  0.87662  0.05700  1.0000
  H   H12       1.0  0.67945  0.71847  0.07165  1.0000
  O   O7        1.0  0.13000  0.00300  0.14650  1.0000
  C   C19       1.0  0.20200  0.06200  0.19500  1.0000
  O   O8        1.0  0.31900  0.04600  0.23950  1.0000
  C   C20       1.0  0.13800  0.16000  0.20350  1.0000
  C   C21       1.0  0.00700  0.18300  0.22350  1.0000
  C   C22       1.0  0.97100  0.27700  0.23150  1.0000
  N   N4        1.0  0.06200  0.34700  0.22000  1.0000
  C   C23       1.0  0.18900  0.32600  0.20100  1.0000
  C   C24       1.0  0.22900  0.23300  0.19250  1.0000
  H   H13       1.0  0.94105  0.13337  0.23159  1.0000
  H   H14       1.0  0.88041  0.29309  0.24530  1.0000
  H   H15       1.0  0.25338  0.37662  0.19300  1.0000
  H   H16       1.0  0.32055  0.21847  0.17836  1.0000
  S   S1        1.0  0.55700  0.13700  0.07800  1.0000
  C   C25       1.0  0.70400  0.08400  0.06150  1.0000
  N   N5        1.0  0.80500  0.04900  0.04950  1.0000
  S   S2        1.0  0.44300  0.63700  0.17200  1.0000
  C   C26       1.0  0.29600  0.58400  0.18850  1.0000
  N   N6        1.0  0.19500  0.54900  0.20050  1.0000
  S   S3        1.0  0.44300  0.86300  0.42200  1.0000
  C   C27       1.0  0.29600  0.91600  0.43850  1.0000
  N   N7        1.0  0.19500  0.95100  0.45050  1.0000
  S   S4        1.0  0.55700  0.36300  0.32800  1.0000
  C   C28       1.0  0.70400  0.41600  0.31150  1.0000
  N   N8        1.0  0.80500  0.45100  0.29950  1.0000
  Mn  Mn1       1.0  0.00000  0.00000  0.00000  1.0000
  Mn  Mn2       1.0  0.00000  0.50000  0.25000  1.0000
  O   O9        1.0  0.13000  0.49700  0.89650  1.0000
  C   C29       1.0  0.20200  0.43800  0.94500  1.0000
  O   O10       1.0  0.31900  0.45400  0.98950  1.0000
  C   C30       1.0  0.13800  0.34000  0.95350  1.0000
  C   C31       1.0  0.00700  0.31700  0.97350  1.0000
  C   C32       1.0  0.97100  0.22300  0.98150  1.0000
  N   N9        1.0  0.06200  0.15300  0.97000  1.0000
  C   C33       1.0  0.18900  0.17400  0.95100  1.0000
  C   C34       1.0  0.22900  0.26700  0.94250  1.0000
  H   H17       1.0  0.94105  0.36663  0.98159  1.0000
  H   H18       1.0  0.88041  0.20691  0.99530  1.0000
  H   H19       1.0  0.25338  0.12338  0.94300  1.0000
  H   H20       1.0  0.32055  0.28153  0.92835  1.0000
  O   O11       1.0  0.87000  0.99700  0.85350  1.0000
  C   C35       1.0  0.79800  0.93800  0.80500  1.0000
  O   O12       1.0  0.68100  0.95400  0.76050  1.0000
  C   C36       1.0  0.86200  0.84000  0.79650  1.0000
  C   C37       1.0  0.99300  0.81700  0.77650  1.0000
  C   C38       1.0  0.02900  0.72300  0.76850  1.0000
  N   N10       1.0  0.93800  0.65300  0.78000  1.0000
  C   C39       1.0  0.81100  0.67400  0.79900  1.0000
  C   C40       1.0  0.77100  0.76700  0.80750  1.0000
  H   H21       1.0  0.05895  0.86663  0.76841  1.0000
  H   H22       1.0  0.11959  0.70691  0.75470  1.0000
  H   H23       1.0  0.74662  0.62338  0.80700  1.0000
  H   H24       1.0  0.67945  0.78153  0.82165  1.0000
  O   O13       1.0  0.87000  0.50300  0.60350  1.0000
  C   C41       1.0  0.79800  0.56200  0.55500  1.0000
  O   O14       1.0  0.68100  0.54600  0.51050  1.0000
  C   C42       1.0  0.86200  0.66000  0.54650  1.0000
  C   C43       1.0  0.99300  0.68300  0.52650  1.0000
  C   C44       1.0  0.02900  0.77700  0.51850  1.0000
  N   N11       1.0  0.93800  0.84700  0.53000  1.0000
  C   C45       1.0  0.81100  0.82600  0.54900  1.0000
  C   C46       1.0  0.77100  0.73300  0.55750  1.0000
  H   H25       1.0  0.05895  0.63337  0.51841  1.0000
  H   H26       1.0  0.11959  0.79309  0.50470  1.0000
  H   H27       1.0  0.74662  0.87662  0.55700  1.0000
  H   H28       1.0  0.67945  0.71847  0.57165  1.0000
  O   O15       1.0  0.13000  0.00300  0.64650  1.0000
  C   C47       1.0  0.20200  0.06200  0.69500  1.0000
  O   O16       1.0  0.31900  0.04600  0.73950  1.0000
  C   C48       1.0  0.13800  0.16000  0.70350  1.0000
  C   C49       1.0  0.00700  0.18300  0.72350  1.0000
  C   C50       1.0  0.97100  0.27700  0.73150  1.0000
  N   N12       1.0  0.06200  0.34700  0.72000  1.0000
  C   C51       1.0  0.18900  0.32600  0.70100  1.0000
  C   C52       1.0  0.22900  0.23300  0.69250  1.0000
  H   H29       1.0  0.94105  0.13337  0.73159  1.0000
  H   H30       1.0  0.88041  0.29309  0.74530  1.0000
  H   H31       1.0  0.25338  0.37662  0.69300  1.0000
  H   H32       1.0  0.32055  0.21847  0.67835  1.0000
  S   S5        1.0  0.55700  0.13700  0.57800  1.0000
  C   C53       1.0  0.70400  0.08400  0.56150  1.0000
  N   N13       1.0  0.80500  0.04900  0.54950  1.0000
  S   S6        1.0  0.44300  0.63700  0.67200  1.0000
  C   C54       1.0  0.29600  0.58400  0.68850  1.0000
  N   N14       1.0  0.19500  0.54900  0.70050  1.0000
  S   S7        1.0  0.44300  0.86300  0.92200  1.0000
  C   C55       1.0  0.29600  0.91600  0.93850  1.0000
  N   N15       1.0  0.19500  0.95100  0.95050  1.0000
  S   S8        1.0  0.55700  0.36300  0.82800  1.0000
  C   C56       1.0  0.70400  0.41600  0.81150  1.0000
  N   N16       1.0  0.80500  0.45100  0.79950  1.0000
  Mn  Mn3       1.0  0.00000  0.00000  0.50000  1.0000
  Mn  Mn4       1.0  0.00000  0.50000  0.75000  1.0000
