data_image0
_chemical_formula_structural       P2O6NHNHCH2CH2CH2CHCH2CH2CHCH2CH2CH2CH2CH2PO3CHNHCHCH2CHCH2CH2CH2CH2CH2CHCH2CH2PHO3HNH2CH2CH2CH2CH2CH2P2O6NHNHCH2CH2CH2CHCH2CH2C3H3O2C2H3O2La4
_chemical_formula_sum              "P6 O22 N6 H78 C40 La4"
_cell_length_a       9.5764
_cell_length_b       15.7243
_cell_length_c       16.9465
_cell_angle_alpha    77.822
_cell_angle_beta     75.309
_cell_angle_gamma    89.068

_space_group_name_H-M_alt    "P 1"
_space_group_IT_number       1

loop_
  _space_group_symop_operation_xyz
  'x, y, z'

loop_
  _atom_site_type_symbol
  _atom_site_label
  _atom_site_symmetry_multiplicity
  _atom_site_fract_x
  _atom_site_fract_y
  _atom_site_fract_z
  _atom_site_occupancy
  P   P1        1.0  0.59100  0.42245  0.93178  1.0000
  P   P2        1.0  0.47040  0.40131  0.26102  1.0000
  O   O1        1.0  0.45960  0.44000  0.89960  1.0000
  O   O2        1.0  0.66400  0.50330  0.94200  1.0000
  O   O3        1.0  0.56420  0.35780  0.01500  1.0000
  O   O4        1.0  0.35230  0.45900  0.29440  1.0000
  O   O5        1.0  0.45780  0.37250  0.18320  1.0000
  O   O6        1.0  0.62200  0.43900  0.24360  1.0000
  N   N1        1.0  0.66900  0.37130  0.77910  1.0000
  H   H1        1.0  0.63340  0.42490  0.75960  1.0000
  N   N2        1.0  0.53010  0.30470  0.40620  1.0000
  H   H2        1.0  0.62350  0.32750  0.38060  1.0000
  C   C1        1.0  0.72380  0.37840  0.85360  1.0000
  H   H3        1.0  0.80780  0.41700  0.83380  1.0000
  H   H4        1.0  0.75190  0.32230  0.87850  1.0000
  C   C2        1.0  0.55080  0.30460  0.79970  1.0000
  H   H5        1.0  0.58750  0.24810  0.81500  1.0000
  H   H6        1.0  0.47570  0.31470  0.84600  1.0000
  C   C3        1.0  0.49070  0.30630  0.72640  1.0000
  H   H7        1.0  0.41020  0.26230  0.74180  1.0000
  H   H8        1.0  0.45210  0.36430  0.70970  1.0000
  C   C4        1.0  0.60880  0.28690  0.65250  1.0000
  H   H9        1.0  0.64150  0.22980  0.67060  1.0000
  C   C5        1.0  0.73720  0.35080  0.63310  1.0000
  H   H10       1.0  0.81380  0.33820  0.58870  1.0000
  H   H11       1.0  0.70460  0.40770  0.61410  1.0000
  C   C6        1.0  0.78980  0.35190  0.71000  1.0000
  H   H12       1.0  0.86500  0.39620  0.69620  1.0000
  H   H13       1.0  0.82930  0.29660  0.72720  1.0000
  C   C7        1.0  0.54390  0.28430  0.57920  1.0000
  H   H14       1.0  0.44790  0.25930  0.60350  1.0000
  C   C8        1.0  0.52910  0.37160  0.52560  1.0000
  H   H15       1.0  0.46970  0.40450  0.56200  1.0000
  H   H16       1.0  0.62060  0.40260  0.50150  1.0000
  C   C9        1.0  0.45380  0.36540  0.45880  1.0000
  H   H17       1.0  0.45620  0.42230  0.42380  1.0000
  H   H18       1.0  0.35430  0.34670  0.48290  1.0000
  C   C10       1.0  0.54060  0.21880  0.45850  1.0000
  H   H19       1.0  0.44670  0.19130  0.48420  1.0000
  H   H20       1.0  0.59450  0.18300  0.42300  1.0000
  C   C11       1.0  0.62000  0.22470  0.52280  1.0000
  H   H21       1.0  0.71910  0.24350  0.49750  1.0000
  H   H22       1.0  0.61840  0.16770  0.55740  1.0000
  C   C12       1.0  0.45660  0.29880  0.33820  1.0000
  H   H23       1.0  0.35650  0.28200  0.36300  1.0000
  H   H24       1.0  0.50020  0.25420  0.31020  1.0000
  P   P3        1.0  0.94280  0.59352  0.05742  1.0000
  O   O7        1.0  0.09910  0.61210  0.01170  1.0000
  O   O8        1.0  0.84170  0.59500  0.00160  1.0000
  O   O9        1.0  0.91110  0.51000  0.12360  1.0000
  C   C13       1.0  0.11580  0.32110  0.88320  1.0000
  H   H25       1.0  0.21650  0.33150  0.85530  1.0000
  N   N3        1.0  0.90830  0.76960  0.06540  1.0000
  H   H26       1.0  0.88050  0.77060  0.01640  1.0000
  C   C14       1.0  0.93640  0.20120  0.95770  1.0000
  H   H27       1.0  0.87720  0.24150  0.98530  1.0000
  C   C15       1.0  0.91530  0.11120  0.01270  1.0000
  H   H28       1.0  0.81530  0.09270  0.02730  1.0000
  H   H29       1.0  0.94190  0.11350  0.06310  1.0000
  C   C16       1.0  0.00810  0.04500  0.97160  1.0000
  H   H30       1.0  0.97650  0.04040  0.92070  1.0000
  C   C17       1.0  0.16400  0.07820  0.94390  1.0000
  H   H31       1.0  0.22170  0.03800  0.91530  1.0000
  H   H32       1.0  0.19760  0.08080  0.99210  1.0000
  C   C18       1.0  0.18340  0.17010  0.88880  1.0000
  H   H33       1.0  0.28300  0.18990  0.87150  1.0000
  H   H34       1.0  0.15090  0.16840  0.84000  1.0000
  C   C19       1.0  0.88420  0.67890  0.11680  1.0000
  H   H35       1.0  0.78350  0.66850  0.14470  1.0000
  H   H36       1.0  0.93640  0.67420  0.15890  1.0000
  C   C20       1.0  0.06360  0.79880  0.04230  1.0000
  H   H37       1.0  0.09170  0.80040  0.09240  1.0000
  H   H38       1.0  0.12280  0.75850  0.01470  1.0000
  C   C21       1.0  0.08470  0.88880  0.98730  1.0000
  H   H39       1.0  0.18470  0.90730  0.97270  1.0000
  H   H40       1.0  0.05810  0.88650  0.93690  1.0000
  C   C22       1.0  0.99190  0.95500  0.02840  1.0000
  H   H41       1.0  0.02350  0.95960  0.07930  1.0000
  C   C23       1.0  0.83600  0.92180  0.05610  1.0000
  H   H42       1.0  0.77830  0.96200  0.08470  1.0000
  H   H43       1.0  0.80240  0.91920  0.00790  1.0000
  C   C24       1.0  0.81660  0.82990  0.11120  1.0000
  H   H44       1.0  0.71700  0.81010  0.12850  1.0000
  H   H45       1.0  0.84910  0.83160  0.16000  1.0000
  P   P4        1.0  0.05720  0.40648  0.94258  1.0000
  H   H46       1.0  0.06360  0.32580  0.84110  1.0000
  O   O10       1.0  0.90090  0.38790  0.98830  1.0000
  O   O11       1.0  0.15830  0.40500  0.99840  1.0000
  O   O12       1.0  0.08890  0.49000  0.87640  1.0000
  H   H47       1.0  0.90830  0.19960  0.90760  1.0000
  N   N4        1.0  0.09170  0.23040  0.93460  1.0000
  H   H48       1.0  0.11950  0.22940  0.98360  1.0000
  H   H49       1.0  0.55210  0.74070  0.39650  1.0000
  C   C25       1.0  0.47090  0.62840  0.47440  1.0000
  H   H50       1.0  0.53030  0.59550  0.43800  1.0000
  H   H51       1.0  0.37940  0.59740  0.49850  1.0000
  C   C26       1.0  0.54620  0.63460  0.54120  1.0000
  H   H52       1.0  0.54380  0.57770  0.57620  1.0000
  H   H53       1.0  0.64570  0.65330  0.51710  1.0000
  C   C27       1.0  0.45940  0.78120  0.54150  1.0000
  H   H54       1.0  0.55330  0.80870  0.51580  1.0000
  H   H55       1.0  0.40550  0.81700  0.57700  1.0000
  C   C28       1.0  0.38000  0.77530  0.47720  1.0000
  H   H56       1.0  0.28090  0.75650  0.50250  1.0000
  H   H57       1.0  0.38160  0.83230  0.44260  1.0000
  C   C29       1.0  0.54340  0.70120  0.66180  1.0000
  H   H58       1.0  0.64350  0.71800  0.63700  1.0000
  H   H59       1.0  0.49980  0.74580  0.68980  1.0000
  P   P5        1.0  0.40900  0.57755  0.06822  1.0000
  P   P6        1.0  0.52960  0.59869  0.73898  1.0000
  O   O13       1.0  0.54040  0.56000  0.10040  1.0000
  O   O14       1.0  0.33600  0.49670  0.05800  1.0000
  O   O15       1.0  0.43580  0.64220  0.98500  1.0000
  O   O16       1.0  0.64770  0.54100  0.70560  1.0000
  O   O17       1.0  0.54220  0.62750  0.81680  1.0000
  O   O18       1.0  0.37800  0.56100  0.75640  1.0000
  N   N5        1.0  0.33100  0.62870  0.22090  1.0000
  H   H60       1.0  0.36660  0.57510  0.24040  1.0000
  N   N6        1.0  0.46990  0.69530  0.59380  1.0000
  H   H61       1.0  0.37650  0.67250  0.61940  1.0000
  C   C30       1.0  0.27620  0.62160  0.14640  1.0000
  H   H62       1.0  0.19220  0.58300  0.16620  1.0000
  H   H63       1.0  0.24810  0.67770  0.12150  1.0000
  C   C31       1.0  0.44920  0.69540  0.20030  1.0000
  H   H64       1.0  0.41250  0.75190  0.18500  1.0000
  H   H65       1.0  0.52430  0.68530  0.15400  1.0000
  C   C32       1.0  0.50930  0.69370  0.27360  1.0000
  H   H66       1.0  0.58980  0.73770  0.25820  1.0000
  H   H67       1.0  0.54790  0.63570  0.29030  1.0000
  C   C33       1.0  0.39120  0.71310  0.34750  1.0000
  H   H68       1.0  0.35850  0.77020  0.32940  1.0000
  C   C34       1.0  0.26280  0.64920  0.36690  1.0000
  H   H69       1.0  0.18620  0.66180  0.41130  1.0000
  H   H70       1.0  0.29540  0.59230  0.38590  1.0000
  C   C35       1.0  0.21020  0.64810  0.29000  1.0000
  H   H71       1.0  0.13500  0.60380  0.30380  1.0000
  H   H72       1.0  0.17070  0.70340  0.27280  1.0000
  C   C36       1.0  0.45610  0.71570  0.42080  1.0000
  C   C37       1.0  0.58550  0.81730  0.96120  1.0000
  C   C38       1.0  0.49660  0.88240  0.99650  1.0000
  H   H73       1.0  0.55370  0.92910  0.00240  1.0000
  H   H74       1.0  0.43400  0.85630  0.04980  1.0000
  H   H75       1.0  0.43950  0.90470  0.95810  1.0000
  O   O19       1.0  0.65350  0.76490  0.00400  1.0000
  O   O20       1.0  0.59370  0.81160  0.88640  1.0000
  C   C39       1.0  0.41450  0.18270  0.03880  1.0000
  C   C40       1.0  0.50340  0.11760  0.00350  1.0000
  H   H76       1.0  0.44630  0.07090  0.99760  1.0000
  H   H77       1.0  0.56600  0.14370  0.95020  1.0000
  H   H78       1.0  0.56050  0.09530  0.04190  1.0000
  O   O21       1.0  0.34650  0.23510  0.99600  1.0000
  O   O22       1.0  0.40630  0.18840  0.11360  1.0000
  La  La1       1.0  0.70711  0.66216  0.89797  1.0000
  La  La2       1.0  0.29257  0.55842  0.91201  1.0000
  La  La3       1.0  0.29289  0.33784  0.10203  1.0000
  La  La4       1.0  0.70743  0.44158  0.08799  1.0000
