data_image0
_chemical_formula_structural       P2O6NHNHCH2CH2CH2CHCH2CH2CHCH2CH2CH2CH2CH2PO3H2CNHCH2CH2CHCH2CH2CH2CH2CH2CHCH2CH2PO3NH3CHCH2CH2CHCH2CH2CH2CH2CH2P2O6NHNHCH2CH2CO2C2H3O2C2H3O2C2H3O2C2H3La4
_chemical_formula_sum              "P6 O26 N6 H84 C44 La4"
_cell_length_a       9.6372
_cell_length_b       15.7944
_cell_length_c       17.0212
_cell_angle_alpha    77.554
_cell_angle_beta     75.552
_cell_angle_gamma    88.779

_space_group_name_H-M_alt    "P 1"
_space_group_IT_number       1

loop_
  _space_group_symop_operation_xyz
  'x, y, z'

loop_
  _atom_site_type_symbol
  _atom_site_label
  _atom_site_symmetry_multiplicity
  _atom_site_fract_x
  _atom_site_fract_y
  _atom_site_fract_z
  _atom_site_occupancy
  P   P1        1.0  0.46925  0.40011  0.26101  1.0000
  P   P2        1.0  0.59146  0.42270  0.93192  1.0000
  O   O1        1.0  0.45630  0.36902  0.18365  1.0000
  O   O2        1.0  0.35160  0.45780  0.29291  1.0000
  O   O3        1.0  0.62020  0.43795  0.24371  1.0000
  O   O4        1.0  0.56480  0.35752  0.01549  1.0000
  O   O5        1.0  0.66320  0.50341  0.94232  1.0000
  O   O6        1.0  0.45940  0.44033  0.89955  1.0000
  N   N1        1.0  0.53260  0.30650  0.40600  1.0000
  H   H1        1.0  0.63141  0.33158  0.37777  1.0000
  N   N2        1.0  0.67110  0.37210  0.77940  1.0000
  H   H2        1.0  0.63194  0.42951  0.75900  1.0000
  C   C1        1.0  0.45920  0.29890  0.33950  1.0000
  H   H3        1.0  0.35716  0.28161  0.36572  1.0000
  H   H4        1.0  0.50368  0.25247  0.31167  1.0000
  C   C2        1.0  0.45700  0.36680  0.45850  1.0000
  H   H5        1.0  0.35726  0.34492  0.48534  1.0000
  H   H6        1.0  0.45352  0.42487  0.42276  1.0000
  C   C3        1.0  0.53320  0.37460  0.52490  1.0000
  H   H7        1.0  0.47912  0.41270  0.56011  1.0000
  H   H8        1.0  0.63012  0.40133  0.49810  1.0000
  C   C4        1.0  0.54580  0.28550  0.57900  1.0000
  H   H9        1.0  0.44599  0.26058  0.60352  1.0000
  C   C5        1.0  0.62390  0.22630  0.52390  1.0000
  H   H10       1.0  0.72284  0.24964  0.49680  1.0000
  H   H11       1.0  0.62974  0.16796  0.55849  1.0000
  C   C6        1.0  0.54730  0.21920  0.45830  1.0000
  H   H12       1.0  0.60151  0.18164  0.42246  1.0000
  H   H13       1.0  0.45095  0.19173  0.48540  1.0000
  C   C7        1.0  0.61090  0.28820  0.65280  1.0000
  H   H14       1.0  0.64653  0.22919  0.67134  1.0000
  C   C8        1.0  0.49390  0.30710  0.72530  1.0000
  H   H15       1.0  0.45587  0.36513  0.70863  1.0000
  H   H16       1.0  0.41405  0.26362  0.73974  1.0000
  C   C9        1.0  0.55300  0.30430  0.80060  1.0000
  H   H17       1.0  0.47555  0.31511  0.84756  1.0000
  H   H18       1.0  0.59041  0.24620  0.81777  1.0000
  C   C10       1.0  0.79150  0.35380  0.71050  1.0000
  H   H19       1.0  0.83123  0.29669  0.72885  1.0000
  H   H20       1.0  0.86913  0.39865  0.69659  1.0000
  C   C11       1.0  0.73640  0.35350  0.63380  1.0000
  H   H21       1.0  0.81547  0.33899  0.58958  1.0000
  H   H22       1.0  0.70516  0.41234  0.61275  1.0000
  C   C12       1.0  0.72280  0.37750  0.85410  1.0000
  H   H23       1.0  0.81200  0.41414  0.83584  1.0000
  H   H24       1.0  0.74646  0.31869  0.88049  1.0000
  P   P3        1.0  0.94302  0.59333  0.05706  1.0000
  O   O7        1.0  0.09810  0.61027  0.01116  1.0000
  O   O8        1.0  0.91010  0.50934  0.12348  1.0000
  O   O9        1.0  0.84020  0.59589  0.00154  1.0000
  H   H25       1.0  0.21412  0.33264  0.85401  1.0000
  H   H26       1.0  0.05553  0.32614  0.84243  1.0000
  C   C13       1.0  0.11200  0.32170  0.88430  1.0000
  N   N3        1.0  0.90600  0.76891  0.06400  1.0000
  H   H27       1.0  0.86786  0.76960  0.01437  1.0000
  C   C14       1.0  0.17840  0.16940  0.88810  1.0000
  H   H28       1.0  0.14399  0.17022  0.83780  1.0000
  H   H29       1.0  0.28078  0.18839  0.87005  1.0000
  C   C15       1.0  0.16330  0.07810  0.94050  1.0000
  H   H30       1.0  0.21780  0.03874  0.90681  1.0000
  H   H31       1.0  0.20521  0.07655  0.98824  1.0000
  C   C16       1.0  0.00730  0.04580  0.97260  1.0000
  H   H32       1.0  0.96826  0.04426  0.92373  1.0000
  C   C17       1.0  0.92240  0.11020  0.01930  1.0000
  H   H33       1.0  0.95611  0.10998  0.06974  1.0000
  H   H34       1.0  0.81980  0.09175  0.03722  1.0000
  C   C18       1.0  0.93830  0.20140  0.96630  1.0000
  H   H35       1.0  0.88419  0.24144  0.99936  1.0000
  H   H36       1.0  0.89764  0.20297  0.91811  1.0000
  C   C19       1.0  0.88800  0.67830  0.11570  1.0000
  H   H37       1.0  0.78588  0.66736  0.14599  1.0000
  H   H38       1.0  0.94447  0.67386  0.15757  1.0000
  C   C20       1.0  0.82160  0.83060  0.11190  1.0000
  H   H39       1.0  0.85601  0.82978  0.16220  1.0000
  H   H40       1.0  0.71922  0.81161  0.12995  1.0000
  C   C21       1.0  0.83670  0.92190  0.05950  1.0000
  H   H41       1.0  0.78220  0.96126  0.09319  1.0000
  H   H42       1.0  0.79479  0.92345  0.01176  1.0000
  C   C22       1.0  0.99270  0.95420  0.02740  1.0000
  H   H43       1.0  0.03174  0.95574  0.07627  1.0000
  C   C23       1.0  0.07760  0.88980  0.98070  1.0000
  H   H44       1.0  0.04389  0.89002  0.93026  1.0000
  H   H45       1.0  0.18020  0.90825  0.96278  1.0000
  C   C24       1.0  0.06170  0.79860  0.03370  1.0000
  H   H46       1.0  0.11581  0.75856  0.00064  1.0000
  H   H47       1.0  0.10236  0.79703  0.08189  1.0000
  P   P4        1.0  0.05698  0.40667  0.94294  1.0000
  O   O10       1.0  0.90190  0.38973  0.98884  1.0000
  O   O11       1.0  0.08990  0.49066  0.87652  1.0000
  O   O12       1.0  0.15980  0.40411  0.99846  1.0000
  N   N4        1.0  0.09400  0.23109  0.93600  1.0000
  H   H48       1.0  0.13214  0.23040  0.98563  1.0000
  H   H49       1.0  0.52088  0.58730  0.43989  1.0000
  H   H50       1.0  0.36988  0.59867  0.50190  1.0000
  C   C25       1.0  0.45420  0.71450  0.42100  1.0000
  H   H51       1.0  0.55401  0.73942  0.39648  1.0000
  C   C26       1.0  0.37610  0.77370  0.47610  1.0000
  H   H52       1.0  0.27716  0.75036  0.50320  1.0000
  H   H53       1.0  0.37026  0.83204  0.44151  1.0000
  C   C27       1.0  0.45270  0.78080  0.54170  1.0000
  H   H54       1.0  0.39849  0.81836  0.57754  1.0000
  H   H55       1.0  0.54905  0.80827  0.51460  1.0000
  C   C28       1.0  0.38910  0.71180  0.34720  1.0000
  H   H56       1.0  0.35347  0.77081  0.32866  1.0000
  C   C29       1.0  0.50610  0.69290  0.27470  1.0000
  H   H57       1.0  0.54413  0.63487  0.29137  1.0000
  H   H58       1.0  0.58595  0.73638  0.26026  1.0000
  C   C30       1.0  0.44700  0.69570  0.19940  1.0000
  H   H59       1.0  0.52445  0.68489  0.15244  1.0000
  H   H60       1.0  0.40959  0.75380  0.18223  1.0000
  C   C31       1.0  0.20850  0.64620  0.28950  1.0000
  H   H61       1.0  0.16877  0.70331  0.27115  1.0000
  H   H62       1.0  0.13087  0.60135  0.30341  1.0000
  C   C32       1.0  0.26360  0.64650  0.36620  1.0000
  H   H63       1.0  0.18453  0.66101  0.41042  1.0000
  H   H64       1.0  0.29484  0.58766  0.38725  1.0000
  C   C33       1.0  0.27720  0.62250  0.14590  1.0000
  H   H65       1.0  0.18800  0.58586  0.16416  1.0000
  H   H66       1.0  0.25354  0.68131  0.11951  1.0000
  P   P5        1.0  0.53075  0.59989  0.73899  1.0000
  P   P6        1.0  0.40854  0.57730  0.06808  1.0000
  O   O13       1.0  0.54370  0.63098  0.81635  1.0000
  O   O14       1.0  0.64840  0.54220  0.70709  1.0000
  O   O15       1.0  0.37980  0.56205  0.75629  1.0000
  O   O16       1.0  0.43520  0.64248  0.98451  1.0000
  O   O17       1.0  0.33680  0.49659  0.05768  1.0000
  O   O18       1.0  0.54060  0.55967  0.10045  1.0000
  N   N5        1.0  0.46740  0.69350  0.59400  1.0000
  H   H67       1.0  0.36859  0.66842  0.62223  1.0000
  N   N6        1.0  0.32890  0.62790  0.22060  1.0000
  H   H68       1.0  0.36806  0.57049  0.24100  1.0000
  C   C34       1.0  0.54080  0.70110  0.66050  1.0000
  H   H69       1.0  0.64284  0.71839  0.63428  1.0000
  H   H70       1.0  0.49632  0.74753  0.68833  1.0000
  C   C35       1.0  0.54300  0.63320  0.54150  1.0000
  H   H71       1.0  0.64274  0.65508  0.51466  1.0000
  H   H72       1.0  0.54648  0.57513  0.57724  1.0000
  C   C36       1.0  0.46680  0.62540  0.47510  1.0000
  O   O19       1.0  0.07270  0.23150  0.12720  1.0000
  O   O20       1.0  0.18320  0.22830  0.24070  1.0000
  C   C37       1.0  0.08340  0.19410  0.20570  1.0000
  C   C38       1.0  0.99570  0.11000  0.24890  1.0000
  H   H73       1.0  0.04450  0.06151  0.22745  1.0000
  H   H74       1.0  0.90041  0.11484  0.23794  1.0000
  H   H75       1.0  0.98602  0.09976  0.30889  1.0000
  O   O21       1.0  0.34580  0.23406  0.99638  1.0000
  O   O22       1.0  0.41420  0.18720  0.11250  1.0000
  C   C39       1.0  0.41770  0.18270  0.03880  1.0000
  C   C40       1.0  0.51080  0.11890  0.99890  1.0000
  H   H76       1.0  0.47010  0.10333  0.95643  1.0000
  H   H77       1.0  0.51611  0.06673  0.04118  1.0000
  H   H78       1.0  0.60729  0.14484  0.97302  1.0000
  O   O23       1.0  0.92730  0.76850  0.87280  1.0000
  O   O24       1.0  0.81680  0.77170  0.75930  1.0000
  C   C41       1.0  0.91660  0.80590  0.79430  1.0000
  C   C42       1.0  0.00430  0.89000  0.75110  1.0000
  H   H79       1.0  0.95550  0.93850  0.77255  1.0000
  H   H80       1.0  0.09959  0.88516  0.76207  1.0000
  H   H81       1.0  0.01398  0.90024  0.69111  1.0000
  O   O25       1.0  0.65420  0.76594  0.00362  1.0000
  O   O26       1.0  0.58580  0.81280  0.88750  1.0000
  C   C43       1.0  0.58230  0.81730  0.96120  1.0000
  C   C44       1.0  0.48920  0.88110  0.00110  1.0000
  H   H82       1.0  0.52990  0.89667  0.04357  1.0000
  H   H83       1.0  0.48389  0.93327  0.95882  1.0000
  H   H84       1.0  0.39271  0.85516  0.02698  1.0000
  La  La1       1.0  0.29555  0.33710  0.10079  1.0000
  La  La2       1.0  0.29274  0.55859  0.91157  1.0000
  La  La3       1.0  0.70445  0.66290  0.89921  1.0000
  La  La4       1.0  0.70726  0.44141  0.08843  1.0000
