data_image0
_chemical_formula_structural       O3NOHN2C4HC2OCHCHC5HOCHCHC3HCHCHCHC2HCHO3NOHN2C4HC2OCHCHC5HOCHCHC3HCHCHCHC2HCHCo2
_chemical_formula_sum              "O12 N6 H26 C48 Co2"
_cell_length_a       9.2155
_cell_length_b       13.8358
_cell_length_c       10.705
_cell_angle_alpha    90
_cell_angle_beta     112.068
_cell_angle_gamma    90

_space_group_name_H-M_alt    "P 1"
_space_group_IT_number       1

loop_
  _space_group_symop_operation_xyz
  'x, y, z'

loop_
  _atom_site_type_symbol
  _atom_site_label
  _atom_site_symmetry_multiplicity
  _atom_site_fract_x
  _atom_site_fract_y
  _atom_site_fract_z
  _atom_site_occupancy
  O   O1        1.0  0.63550  0.64610  0.66900  1.0000
  O   O2        1.0  0.62100  0.49170  0.60810  1.0000
  O   O3        1.0  0.17340  0.52110  0.13290  1.0000
  N   N1        1.0  0.15280  0.48830  0.68550  1.0000
  O   O4        1.0  0.37820  0.50730  0.02050  1.0000
  H   H1        1.0  0.32150  0.50740  0.06400  1.0000
  N   N2        1.0  0.32040  0.73520  0.56250  1.0000
  N   N3        1.0  0.30180  0.22930  0.57790  1.0000
  C   C1        1.0  0.96950  0.49870  0.84160  1.0000
  C   C2        1.0  0.10920  0.40790  0.73190  1.0000
  C   C3        1.0  0.10770  0.57420  0.71730  1.0000
  C   C4        1.0  0.27410  0.65750  0.61380  1.0000
  H   H2        1.0  0.32310  0.59850  0.61530  1.0000
  C   C5        1.0  0.70340  0.52740  0.84100  1.0000
  C   C6        1.0  0.85940  0.50290  0.91430  1.0000
  O   O5        1.0  0.55870  0.46530  0.21770  1.0000
  C   C7        1.0  0.24530  0.81880  0.55500  1.0000
  H   H3        1.0  0.27520  0.87210  0.51730  1.0000
  C   C8        1.0  0.01470  0.58200  0.79500  1.0000
  H   H4        1.0  0.98400  0.64230  0.81470  1.0000
  C   C9        1.0  0.15570  0.66220  0.66460  1.0000
  C   C10       1.0  0.90440  0.47720  0.05060  1.0000
  C   C11       1.0  0.63700  0.49340  0.03320  1.0000
  C   C12       1.0  0.64960  0.55760  0.69350  1.0000
  C   C13       1.0  0.59240  0.52320  0.90060  1.0000
  H   H5        1.0  0.48890  0.54020  0.85150  1.0000
  O   O6        1.0  0.10370  0.39420  0.22260  1.0000
  C   C14       1.0  0.01930  0.41030  0.81170  1.0000
  H   H6        1.0  0.99320  0.35330  0.84430  1.0000
  C   C15       1.0  0.79180  0.47000  0.10670  1.0000
  H   H7        1.0  0.82070  0.44920  0.19530  1.0000
  C   C16       1.0  0.15270  0.31380  0.68640  1.0000
  C   C17       1.0  0.52120  0.48710  0.10010  1.0000
  C   C18       1.0  0.22880  0.14690  0.58510  1.0000
  H   H8        1.0  0.25420  0.09030  0.55110  1.0000
  C   C19       1.0  0.12560  0.82880  0.60080  1.0000
  H   H9        1.0  0.07430  0.88760  0.59290  1.0000
  C   C20       1.0  0.26430  0.30950  0.62830  1.0000
  H   H10       1.0  0.31630  0.36630  0.62430  1.0000
  C   C21       1.0  0.08240  0.75060  0.65840  1.0000
  H   H11       1.0  0.00440  0.75700  0.69320  1.0000
  C   C22       1.0  0.07460  0.46090  0.14160  1.0000
  C   C23       1.0  0.07890  0.22830  0.69380  1.0000
  H   H12       1.0  0.00450  0.22750  0.73320  1.0000
  C   C24       1.0  0.11560  0.14380  0.64260  1.0000
  H   H13       1.0  0.06570  0.08610  0.64650  1.0000
  O   O7        1.0  0.36450  0.14610  0.33100  1.0000
  O   O8        1.0  0.37900  0.99170  0.39190  1.0000
  O   O9        1.0  0.82660  0.02110  0.86710  1.0000
  N   N4        1.0  0.84720  0.98830  0.31450  1.0000
  O   O10       1.0  0.62180  0.00730  0.97950  1.0000
  H   H14       1.0  0.67850  0.00740  0.93600  1.0000
  N   N5        1.0  0.67960  0.23520  0.43750  1.0000
  N   N6        1.0  0.69820  0.72930  0.42210  1.0000
  C   C25       1.0  0.03050  0.99870  0.15840  1.0000
  C   C26       1.0  0.89080  0.90790  0.26810  1.0000
  C   C27       1.0  0.89230  0.07420  0.28270  1.0000
  C   C28       1.0  0.72590  0.15750  0.38620  1.0000
  H   H15       1.0  0.67690  0.09850  0.38470  1.0000
  C   C29       1.0  0.29660  0.02740  0.15900  1.0000
  C   C30       1.0  0.14060  0.00290  0.08570  1.0000
  O   O11       1.0  0.44130  0.96530  0.78230  1.0000
  C   C31       1.0  0.75470  0.31880  0.44500  1.0000
  H   H16       1.0  0.72480  0.37210  0.48270  1.0000
  C   C32       1.0  0.98530  0.08200  0.20500  1.0000
  H   H17       1.0  0.01600  0.14230  0.18530  1.0000
  C   C33       1.0  0.84430  0.16220  0.33540  1.0000
  C   C34       1.0  0.09560  0.97720  0.94940  1.0000
  C   C35       1.0  0.36300  0.99340  0.96680  1.0000
  C   C36       1.0  0.35040  0.05760  0.30650  1.0000
  C   C37       1.0  0.40760  0.02320  0.09940  1.0000
  H   H18       1.0  0.51110  0.04020  0.14850  1.0000
  O   O12       1.0  0.89630  0.89420  0.77740  1.0000
  C   C38       1.0  0.98070  0.91030  0.18830  1.0000
  H   H19       1.0  0.00680  0.85330  0.15570  1.0000
  C   C39       1.0  0.20820  0.97000  0.89330  1.0000
  H   H20       1.0  0.17930  0.94920  0.80470  1.0000
  C   C40       1.0  0.84730  0.81380  0.31360  1.0000
  C   C41       1.0  0.47880  0.98710  0.89990  1.0000
  C   C42       1.0  0.77120  0.64690  0.41490  1.0000
  H   H21       1.0  0.74580  0.59030  0.44890  1.0000
  C   C43       1.0  0.87440  0.32880  0.39920  1.0000
  H   H22       1.0  0.92570  0.38760  0.40710  1.0000
  C   C44       1.0  0.73570  0.80950  0.37170  1.0000
  H   H23       1.0  0.68370  0.86630  0.37570  1.0000
  C   C45       1.0  0.91760  0.25060  0.34160  1.0000
  H   H24       1.0  0.99560  0.25700  0.30680  1.0000
  C   C46       1.0  0.92540  0.96090  0.85840  1.0000
  C   C47       1.0  0.92110  0.72830  0.30620  1.0000
  H   H25       1.0  0.99550  0.72750  0.26680  1.0000
  C   C48       1.0  0.88440  0.64380  0.35740  1.0000
  H   H26       1.0  0.93430  0.58610  0.35350  1.0000
  Co  Co1       1.0  0.51269  0.72602  0.49725  1.0000
  Co  Co2       1.0  0.48731  0.22602  0.50275  1.0000
