data_image0
_chemical_formula_structural       O2NON2OHCHCHC7O2CHCHC2HCHCHC3HCHCHCHC2HCO2NON2OHCHCHC7O2CHCHC2HCHCHC3HCHCHCHC2HCNi2
_chemical_formula_sum              "O12 N6 H26 C48 Ni2"
_cell_length_a       9.1991
_cell_length_b       13.7667
_cell_length_c       10.6459
_cell_angle_alpha    90
_cell_angle_beta     111.882
_cell_angle_gamma    90

_space_group_name_H-M_alt    "P 1"
_space_group_IT_number       1

loop_
  _space_group_symop_operation_xyz
  'x, y, z'

loop_
  _atom_site_type_symbol
  _atom_site_label
  _atom_site_symmetry_multiplicity
  _atom_site_fract_x
  _atom_site_fract_y
  _atom_site_fract_z
  _atom_site_occupancy
  O   O1        1.0  0.13670  0.65040  0.17090  1.0000
  O   O2        1.0  0.11850  0.49590  0.10730  1.0000
  N   N1        1.0  0.65500  0.48990  0.18470  1.0000
  O   O3        1.0  0.67280  0.52040  0.63410  1.0000
  N   N2        1.0  0.82400  0.73710  0.06110  1.0000
  N   N3        1.0  0.80460  0.23070  0.07560  1.0000
  O   O4        1.0  0.87850  0.50840  0.52150  1.0000
  H   H1        1.0  0.82100  0.50870  0.56470  1.0000
  C   C1        1.0  0.51500  0.58400  0.29270  1.0000
  H   H2        1.0  0.48270  0.64460  0.31070  1.0000
  C   C2        1.0  0.77790  0.66010  0.11360  1.0000
  H   H3        1.0  0.82940  0.60120  0.11840  1.0000
  C   C3        1.0  0.47040  0.50090  0.34170  1.0000
  C   C4        1.0  0.65580  0.66440  0.16140  1.0000
  C   C5        1.0  0.60880  0.57630  0.21630  1.0000
  C   C6        1.0  0.20430  0.52970  0.34080  1.0000
  C   C7        1.0  0.14990  0.56200  0.19390  1.0000
  C   C8        1.0  0.61010  0.40940  0.22960  1.0000
  C   C9        1.0  0.35980  0.50410  0.41320  1.0000
  O   O5        1.0  0.60210  0.39130  0.72000  1.0000
  O   O6        1.0  0.05680  0.46230  0.71790  1.0000
  C   C10       1.0  0.74800  0.82160  0.05280  1.0000
  H   H4        1.0  0.77900  0.87540  0.01610  1.0000
  C   C11       1.0  0.58290  0.75330  0.15560  1.0000
  H   H5        1.0  0.50530  0.76030  0.19130  1.0000
  C   C12       1.0  0.13730  0.49410  0.53430  1.0000
  C   C13       1.0  0.62660  0.83130  0.09650  1.0000
  H   H6        1.0  0.57380  0.89020  0.08630  1.0000
  C   C14       1.0  0.52060  0.41180  0.31130  1.0000
  H   H7        1.0  0.49520  0.35450  0.34480  1.0000
  C   C15       1.0  0.09230  0.52450  0.40040  1.0000
  H   H8        1.0  0.98870  0.54120  0.35110  1.0000
  C   C16       1.0  0.40440  0.47650  0.55050  1.0000
  C   C17       1.0  0.65500  0.31530  0.18520  1.0000
  C   C18       1.0  0.73260  0.14780  0.08480  1.0000
  H   H9        1.0  0.75900  0.09090  0.05130  1.0000
  C   C19       1.0  0.29090  0.46960  0.60640  1.0000
  H   H10       1.0  0.31930  0.44770  0.69500  1.0000
  C   C20       1.0  0.76600  0.31170  0.12500  1.0000
  H   H11       1.0  0.81620  0.36910  0.11880  1.0000
  C   C21       1.0  0.58350  0.22800  0.19510  1.0000
  H   H12       1.0  0.51120  0.22610  0.23710  1.0000
  C   C22       1.0  0.01960  0.48600  0.60100  1.0000
  C   C23       1.0  0.62060  0.14400  0.14220  1.0000
  H   H13       1.0  0.57080  0.08580  0.14520  1.0000
  C   C24       1.0  0.57540  0.45960  0.64130  1.0000
  O   O7        1.0  0.86330  0.15040  0.82910  1.0000
  O   O8        1.0  0.88150  0.99590  0.89270  1.0000
  N   N4        1.0  0.34500  0.98990  0.81530  1.0000
  O   O9        1.0  0.32720  0.02040  0.36590  1.0000
  N   N5        1.0  0.17600  0.23710  0.93890  1.0000
  N   N6        1.0  0.19540  0.73070  0.92440  1.0000
  O   O10       1.0  0.12150  0.00840  0.47850  1.0000
  H   H14       1.0  0.17900  0.00870  0.43530  1.0000
  C   C25       1.0  0.48500  0.08400  0.70730  1.0000
  H   H15       1.0  0.51730  0.14460  0.68930  1.0000
  C   C26       1.0  0.22210  0.16010  0.88640  1.0000
  H   H16       1.0  0.17060  0.10120  0.88160  1.0000
  C   C27       1.0  0.52960  0.00090  0.65830  1.0000
  C   C28       1.0  0.34420  0.16440  0.83860  1.0000
  C   C29       1.0  0.39120  0.07630  0.78370  1.0000
  C   C30       1.0  0.79570  0.02970  0.65920  1.0000
  C   C31       1.0  0.85010  0.06200  0.80610  1.0000
  C   C32       1.0  0.38990  0.90940  0.77040  1.0000
  C   C33       1.0  0.64020  0.00410  0.58680  1.0000
  O   O11       1.0  0.39790  0.89130  0.28000  1.0000
  O   O12       1.0  0.94320  0.96230  0.28210  1.0000
  C   C34       1.0  0.25200  0.32160  0.94720  1.0000
  H   H17       1.0  0.22100  0.37540  0.98390  1.0000
  C   C35       1.0  0.41710  0.25330  0.84440  1.0000
  H   H18       1.0  0.49470  0.26030  0.80870  1.0000
  C   C36       1.0  0.86270  0.99410  0.46570  1.0000
  C   C37       1.0  0.37340  0.33130  0.90350  1.0000
  H   H19       1.0  0.42620  0.39020  0.91370  1.0000
  C   C38       1.0  0.47940  0.91180  0.68870  1.0000
  H   H20       1.0  0.50480  0.85450  0.65520  1.0000
  C   C39       1.0  0.90770  0.02450  0.59960  1.0000
  H   H21       1.0  0.01130  0.04120  0.64890  1.0000
  C   C40       1.0  0.59560  0.97650  0.44950  1.0000
  C   C41       1.0  0.34500  0.81530  0.81480  1.0000
  C   C42       1.0  0.26740  0.64780  0.91520  1.0000
  H   H22       1.0  0.24100  0.59090  0.94870  1.0000
  C   C43       1.0  0.70910  0.96960  0.39360  1.0000
  H   H23       1.0  0.68070  0.94770  0.30500  1.0000
  C   C44       1.0  0.23400  0.81170  0.87500  1.0000
  H   H24       1.0  0.18380  0.86910  0.88120  1.0000
  C   C45       1.0  0.41650  0.72800  0.80490  1.0000
  H   H25       1.0  0.48880  0.72610  0.76290  1.0000
  C   C46       1.0  0.98040  0.98600  0.39900  1.0000
  C   C47       1.0  0.37940  0.64400  0.85780  1.0000
  H   H26       1.0  0.42920  0.58580  0.85480  1.0000
  C   C48       1.0  0.42460  0.95960  0.35870  1.0000
  Ni  Ni1       1.0  0.01339  0.72870  0.99813  1.0000
  Ni  Ni2       1.0  0.98661  0.22870  0.00187  1.0000
