data_image0
_chemical_formula_structural       O2NO2HONOHCNC4HC6HC2HCHCHC3HCHCHCHCHCHCH2O2NO2HONOHCNC4HC6HC2HCHCHC3HCHCHCHCHCHCH2
_chemical_formula_sum              "O12 N6 H30 C48"
_cell_length_a       9.2898
_cell_length_b       10.6567
_cell_length_c       11.3437
_cell_angle_alpha    83.18
_cell_angle_beta     68.49
_cell_angle_gamma    86.801

_space_group_name_H-M_alt    "P 1"
_space_group_IT_number       1

loop_
  _space_group_symop_operation_xyz
  'x, y, z'

loop_
  _atom_site_type_symbol
  _atom_site_label
  _atom_site_symmetry_multiplicity
  _atom_site_fract_x
  _atom_site_fract_y
  _atom_site_fract_z
  _atom_site_occupancy
  O   O1        1.0  0.77070  0.02828  0.19214  1.0000
  O   O2        1.0  0.23460  0.59725  0.57425  1.0000
  N   N1        1.0  0.36398  0.46975  0.92675  1.0000
  O   O3        1.0  0.74585  0.73020  0.71124  1.0000
  O   O4        1.0  0.52392  0.02230  0.21150  1.0000
  H   H1        1.0  0.55540  0.06490  0.14210  1.0000
  O   O5        1.0  0.13709  0.79030  0.59600  1.0000
  N   N2        1.0  0.96050  0.52915  0.22820  1.0000
  O   O6        1.0  0.91945  0.76810  0.51666  1.0000
  H   H2        1.0  0.97940  0.76530  0.55490  1.0000
  C   C1        1.0  0.28590  0.57677  0.91548  1.0000
  N   N3        1.0  0.59930  0.14693  0.98934  1.0000
  C   C2        1.0  0.57710  0.32532  0.84676  1.0000
  C   C3        1.0  0.14180  0.59949  0.02599  1.0000
  C   C4        1.0  0.46430  0.63581  0.70438  1.0000
  C   C5        1.0  0.33310  0.66306  0.80716  1.0000
  H   H3        1.0  0.27770  0.73790  0.80350  1.0000
  C   C6        1.0  0.49160  0.44370  0.82780  1.0000
  C   C7        1.0  0.66140  0.78205  0.53574  1.0000
  C   C8        1.0  0.51349  0.72840  0.58736  1.0000
  C   C9        1.0  0.59420  0.90381  0.36934  1.0000
  C   C10       1.0  0.40608  0.76724  0.52896  1.0000
  C   C11       1.0  0.44600  0.85620  0.42390  1.0000
  H   H4        1.0  0.37210  0.88460  0.38920  1.0000
  C   C12       1.0  0.63890  0.99198  0.24872  1.0000
  C   C13       1.0  0.54290  0.52355  0.71382  1.0000
  H   H5        1.0  0.62880  0.50130  0.64530  1.0000
  C   C14       1.0  0.71000  0.28480  0.75404  1.0000
  H   H6        1.0  0.74960  0.33220  0.67510  1.0000
  C   C15       1.0  0.70070  0.86749  0.42628  1.0000
  H   H7        1.0  0.79990  0.90050  0.39100  1.0000
  C   C16       1.0  0.24620  0.71270  0.57190  1.0000
  C   C17       1.0  0.77790  0.75680  0.59850  1.0000
  C   C18       1.0  0.52630  0.25240  0.96455  1.0000
  H   H8        1.0  0.43780  0.27840  0.02860  1.0000
  C   C19       1.0  0.09330  0.51030  0.13122  1.0000
  H   H9        1.0  0.15250  0.43770  0.13480  1.0000
  C   C20       1.0  0.78390  0.17430  0.77820  1.0000
  H   H10       1.0  0.87130  0.14500  0.71530  1.0000
  C   C21       1.0  0.05140  0.70650  0.02700  1.0000
  H   H11       1.0  0.08210  0.76880  0.95820  1.0000
  C   C22       1.0  0.72580  0.10830  0.89750  1.0000
  H   H12       1.0  0.77610  0.03450  0.91470  1.0000
  C   C23       1.0  0.87130  0.63120  0.22900  1.0000
  H   H13       1.0  0.77930  0.63990  0.29760  1.0000
  C   C24       1.0  0.91510  0.72270  0.12930  1.0000
  H   H14       1.0  0.85460  0.79530  0.12950  1.0000
  H   H15       1.0  0.93070  0.46830  0.29300  1.0000
  O   O7        1.0  0.22930  0.97172  0.80786  1.0000
  O   O8        1.0  0.76540  0.40275  0.42575  1.0000
  N   N4        1.0  0.63602  0.53025  0.07325  1.0000
  O   O9        1.0  0.25415  0.26980  0.28876  1.0000
  O   O10       1.0  0.47608  0.97770  0.78850  1.0000
  H   H16       1.0  0.44460  0.93510  0.85790  1.0000
  O   O11       1.0  0.86291  0.20970  0.40400  1.0000
  N   N5        1.0  0.03950  0.47085  0.77180  1.0000
  O   O12       1.0  0.08055  0.23190  0.48334  1.0000
  H   H17       1.0  0.02060  0.23470  0.44510  1.0000
  C   C25       1.0  0.71410  0.42323  0.08452  1.0000
  N   N6        1.0  0.40070  0.85307  0.01066  1.0000
  C   C26       1.0  0.42290  0.67468  0.15324  1.0000
  C   C27       1.0  0.85820  0.40051  0.97401  1.0000
  C   C28       1.0  0.53570  0.36419  0.29562  1.0000
  C   C29       1.0  0.66690  0.33694  0.19284  1.0000
  H   H18       1.0  0.72230  0.26210  0.19650  1.0000
  C   C30       1.0  0.50840  0.55630  0.17220  1.0000
  C   C31       1.0  0.33860  0.21795  0.46426  1.0000
  C   C32       1.0  0.48651  0.27160  0.41264  1.0000
  C   C33       1.0  0.40580  0.09619  0.63066  1.0000
  C   C34       1.0  0.59392  0.23276  0.47104  1.0000
  C   C35       1.0  0.55400  0.14380  0.57610  1.0000
  H   H19       1.0  0.62790  0.11540  0.61080  1.0000
  C   C36       1.0  0.36110  0.00802  0.75128  1.0000
  C   C37       1.0  0.45710  0.47645  0.28618  1.0000
  H   H20       1.0  0.37120  0.49870  0.35470  1.0000
  C   C38       1.0  0.29000  0.71520  0.24596  1.0000
  H   H21       1.0  0.25040  0.66780  0.32490  1.0000
  C   C39       1.0  0.29930  0.13251  0.57372  1.0000
  H   H22       1.0  0.20010  0.09950  0.60900  1.0000
  C   C40       1.0  0.75380  0.28730  0.42810  1.0000
  C   C41       1.0  0.22210  0.24320  0.40150  1.0000
  C   C42       1.0  0.47370  0.74760  0.03545  1.0000
  H   H23       1.0  0.56220  0.72160  0.97140  1.0000
  C   C43       1.0  0.90670  0.48970  0.86878  1.0000
  H   H24       1.0  0.84750  0.56230  0.86520  1.0000
  C   C44       1.0  0.21610  0.82570  0.22180  1.0000
  H   H25       1.0  0.12870  0.85500  0.28470  1.0000
  C   C45       1.0  0.94860  0.29350  0.97300  1.0000
  H   H26       1.0  0.91790  0.23120  0.04180  1.0000
  C   C46       1.0  0.27420  0.89170  0.10250  1.0000
  H   H27       1.0  0.22390  0.96550  0.08530  1.0000
  C   C47       1.0  0.12870  0.36880  0.77100  1.0000
  H   H28       1.0  0.22070  0.36010  0.70240  1.0000
  C   C48       1.0  0.08490  0.27730  0.87070  1.0000
  H   H29       1.0  0.14540  0.20470  0.87050  1.0000
  H   H30       1.0  0.06930  0.53170  0.70700  1.0000
