data_image0
_chemical_formula_structural       C6PO3H4C6PO3H4C6PO3H4C6PO3H4C6PO3H4C6PO3H4C6PO3H4C6PO3H4Ce4C6PO3H4C6PO3H4C6PO3H4C6PO3H4C6PO3H4C6PO3H4C6PO3H4C6PO3H4Ce4
_chemical_formula_sum              "C96 P16 O48 H64 Ce8"
_cell_length_a       11.2568
_cell_length_b       28.7487
_cell_length_c       8.3867
_cell_angle_alpha    90
_cell_angle_beta     70.6652
_cell_angle_gamma    90

_space_group_name_H-M_alt    "P 1"
_space_group_IT_number       1

loop_
  _space_group_symop_operation_xyz
  'x, y, z'

loop_
  _atom_site_type_symbol
  _atom_site_label
  _atom_site_symmetry_multiplicity
  _atom_site_fract_x
  _atom_site_fract_y
  _atom_site_fract_z
  _atom_site_occupancy
  C   C1        1.0  0.27156  0.37514  0.47255  1.0000
  C   C2        1.0  0.37913  0.40251  0.42531  1.0000
  C   C3        1.0  0.37121  0.45087  0.43310  1.0000
  C   C4        1.0  0.25399  0.47372  0.49400  1.0000
  C   C5        1.0  0.14540  0.44504  0.54819  1.0000
  C   C6        1.0  0.15450  0.39650  0.53804  1.0000
  P   P1        1.0  0.28919  0.31295  0.50497  1.0000
  O   O1        1.0  0.36528  0.31247  0.66252  1.0000
  O   O2        1.0  0.15452  0.28261  0.49629  1.0000
  O   O3        1.0  0.38688  0.29115  0.32023  1.0000
  H   H1        1.0  0.05238  0.45886  0.60427  1.0000
  H   H2        1.0  0.07075  0.37556  0.59017  1.0000
  H   H3        1.0  0.47004  0.38600  0.39103  1.0000
  H   H4        1.0  0.45888  0.46933  0.39661  1.0000
  C   C7        1.0  0.22844  0.62486  0.52745  1.0000
  C   C8        1.0  0.12088  0.59749  0.57469  1.0000
  C   C9        1.0  0.12879  0.54913  0.56690  1.0000
  C   C10       1.0  0.24601  0.52628  0.50600  1.0000
  C   C11       1.0  0.35459  0.55496  0.45181  1.0000
  C   C12       1.0  0.34550  0.60350  0.46196  1.0000
  P   P2        1.0  0.21081  0.68705  0.49503  1.0000
  O   O4        1.0  0.13472  0.68753  0.33748  1.0000
  O   O5        1.0  0.34548  0.71739  0.50371  1.0000
  O   O6        1.0  0.11311  0.70885  0.67977  1.0000
  H   H5        1.0  0.44762  0.54114  0.39573  1.0000
  H   H6        1.0  0.42925  0.62444  0.40983  1.0000
  H   H7        1.0  0.02996  0.61400  0.60897  1.0000
  H   H8        1.0  0.04112  0.53067  0.60339  1.0000
  C   C13       1.0  0.02156  0.87514  0.47255  1.0000
  C   C14       1.0  0.12912  0.90251  0.42531  1.0000
  C   C15       1.0  0.12121  0.95087  0.43310  1.0000
  C   C16       1.0  0.00399  0.97372  0.49400  1.0000
  C   C17       1.0  0.39541  0.94504  0.54819  1.0000
  C   C18       1.0  0.40450  0.89650  0.53804  1.0000
  P   P3        1.0  0.03919  0.81295  0.50497  1.0000
  O   O7        1.0  0.11528  0.81247  0.66252  1.0000
  O   O8        1.0  0.40452  0.78261  0.49629  1.0000
  O   O9        1.0  0.13688  0.79115  0.32023  1.0000
  H   H9        1.0  0.30237  0.95886  0.60427  1.0000
  H   H10       1.0  0.32075  0.87556  0.59017  1.0000
  H   H11       1.0  0.22004  0.88600  0.39103  1.0000
  H   H12       1.0  0.20888  0.96933  0.39661  1.0000
  C   C19       1.0  0.47844  0.12486  0.52745  1.0000
  C   C20       1.0  0.37087  0.09749  0.57469  1.0000
  C   C21       1.0  0.37879  0.04913  0.56690  1.0000
  C   C22       1.0  0.49601  0.02628  0.50600  1.0000
  C   C23       1.0  0.10459  0.05496  0.45181  1.0000
  C   C24       1.0  0.09550  0.10350  0.46196  1.0000
  P   P4        1.0  0.46081  0.18705  0.49503  1.0000
  O   O10       1.0  0.38472  0.18753  0.33748  1.0000
  O   O11       1.0  0.09548  0.21739  0.50371  1.0000
  O   O12       1.0  0.36311  0.20885  0.67977  1.0000
  H   H13       1.0  0.19762  0.04114  0.39573  1.0000
  H   H14       1.0  0.17925  0.12444  0.40983  1.0000
  H   H15       1.0  0.27996  0.11400  0.60897  1.0000
  H   H16       1.0  0.29112  0.03067  0.60339  1.0000
  C   C25       1.0  0.22844  0.37514  0.02745  1.0000
  C   C26       1.0  0.12087  0.40251  0.07469  1.0000
  C   C27       1.0  0.12879  0.45087  0.06690  1.0000
  C   C28       1.0  0.24601  0.47372  0.00600  1.0000
  C   C29       1.0  0.35459  0.44504  0.95181  1.0000
  C   C30       1.0  0.34550  0.39650  0.96196  1.0000
  P   P5        1.0  0.21081  0.31295  0.99503  1.0000
  O   O13       1.0  0.13472  0.31247  0.83748  1.0000
  O   O14       1.0  0.34548  0.28261  0.00371  1.0000
  O   O15       1.0  0.11311  0.29115  0.17977  1.0000
  H   H17       1.0  0.44763  0.45886  0.89573  1.0000
  H   H18       1.0  0.42925  0.37556  0.90983  1.0000
  H   H19       1.0  0.02996  0.38600  0.10897  1.0000
  H   H20       1.0  0.04112  0.46933  0.10339  1.0000
  C   C31       1.0  0.27156  0.62486  0.97255  1.0000
  C   C32       1.0  0.37913  0.59749  0.92531  1.0000
  C   C33       1.0  0.37121  0.54913  0.93310  1.0000
  C   C34       1.0  0.25399  0.52628  0.99400  1.0000
  C   C35       1.0  0.14541  0.55496  0.04819  1.0000
  C   C36       1.0  0.15450  0.60350  0.03804  1.0000
  P   P6        1.0  0.28919  0.68705  0.00497  1.0000
  O   O16       1.0  0.36528  0.68753  0.16252  1.0000
  O   O17       1.0  0.15452  0.71739  0.99629  1.0000
  O   O18       1.0  0.38688  0.70885  0.82023  1.0000
  H   H21       1.0  0.05238  0.54114  0.10427  1.0000
  H   H22       1.0  0.07075  0.62444  0.09017  1.0000
  H   H23       1.0  0.47004  0.61400  0.89103  1.0000
  H   H24       1.0  0.45888  0.53067  0.89661  1.0000
  C   C37       1.0  0.47844  0.87514  0.02745  1.0000
  C   C38       1.0  0.37087  0.90251  0.07469  1.0000
  C   C39       1.0  0.37879  0.95087  0.06690  1.0000
  C   C40       1.0  0.49601  0.97372  0.00600  1.0000
  C   C41       1.0  0.10460  0.94504  0.95181  1.0000
  C   C42       1.0  0.09550  0.89650  0.96196  1.0000
  P   P7        1.0  0.46081  0.81295  0.99503  1.0000
  O   O19       1.0  0.38472  0.81247  0.83748  1.0000
  O   O20       1.0  0.09548  0.78261  0.00371  1.0000
  O   O21       1.0  0.36311  0.79115  0.17977  1.0000
  H   H25       1.0  0.19762  0.95886  0.89573  1.0000
  H   H26       1.0  0.17925  0.87556  0.90983  1.0000
  H   H27       1.0  0.27996  0.88600  0.10897  1.0000
  H   H28       1.0  0.29112  0.96933  0.10339  1.0000
  C   C43       1.0  0.02156  0.12486  0.97255  1.0000
  C   C44       1.0  0.12913  0.09749  0.92531  1.0000
  C   C45       1.0  0.12121  0.04913  0.93310  1.0000
  C   C46       1.0  0.00399  0.02628  0.99400  1.0000
  C   C47       1.0  0.39541  0.05496  0.04819  1.0000
  C   C48       1.0  0.40450  0.10350  0.03804  1.0000
  P   P8        1.0  0.03919  0.18705  0.00497  1.0000
  O   O22       1.0  0.11528  0.18753  0.16252  1.0000
  O   O23       1.0  0.40452  0.21739  0.99629  1.0000
  O   O24       1.0  0.13689  0.20885  0.82023  1.0000
  H   H29       1.0  0.30238  0.04114  0.10427  1.0000
  H   H30       1.0  0.32075  0.12444  0.09017  1.0000
  H   H31       1.0  0.22004  0.11400  0.89103  1.0000
  H   H32       1.0  0.20888  0.03067  0.89661  1.0000
  Ce  Ce1       1.0  0.00000  0.26033  0.75000  1.0000
  Ce  Ce2       1.0  0.25000  0.76033  0.75000  1.0000
  Ce  Ce3       1.0  0.00000  0.73967  0.25000  1.0000
  Ce  Ce4       1.0  0.25000  0.23967  0.25000  1.0000
  C   C49       1.0  0.77156  0.37514  0.47255  1.0000
  C   C50       1.0  0.87912  0.40251  0.42531  1.0000
  C   C51       1.0  0.87121  0.45087  0.43310  1.0000
  C   C52       1.0  0.75399  0.47372  0.49400  1.0000
  C   C53       1.0  0.64540  0.44504  0.54819  1.0000
  C   C54       1.0  0.65450  0.39650  0.53804  1.0000
  P   P9        1.0  0.78919  0.31295  0.50497  1.0000
  O   O25       1.0  0.86528  0.31247  0.66252  1.0000
  O   O26       1.0  0.65451  0.28261  0.49629  1.0000
  O   O27       1.0  0.88689  0.29115  0.32023  1.0000
  H   H33       1.0  0.55237  0.45886  0.60427  1.0000
  H   H34       1.0  0.57075  0.37556  0.59017  1.0000
  H   H35       1.0  0.97004  0.38600  0.39103  1.0000
  H   H36       1.0  0.95888  0.46933  0.39661  1.0000
  C   C55       1.0  0.72844  0.62486  0.52745  1.0000
  C   C56       1.0  0.62088  0.59749  0.57469  1.0000
  C   C57       1.0  0.62879  0.54913  0.56690  1.0000
  C   C58       1.0  0.74601  0.52628  0.50600  1.0000
  C   C59       1.0  0.85459  0.55496  0.45181  1.0000
  C   C60       1.0  0.84550  0.60350  0.46196  1.0000
  P   P10       1.0  0.71081  0.68705  0.49503  1.0000
  O   O28       1.0  0.63472  0.68753  0.33748  1.0000
  O   O29       1.0  0.84548  0.71739  0.50371  1.0000
  O   O30       1.0  0.61311  0.70885  0.67977  1.0000
  H   H37       1.0  0.94763  0.54114  0.39573  1.0000
  H   H38       1.0  0.92926  0.62444  0.40983  1.0000
  H   H39       1.0  0.52996  0.61400  0.60897  1.0000
  H   H40       1.0  0.54112  0.53067  0.60339  1.0000
  C   C61       1.0  0.52156  0.87514  0.47255  1.0000
  C   C62       1.0  0.62913  0.90251  0.42531  1.0000
  C   C63       1.0  0.62121  0.95087  0.43310  1.0000
  C   C64       1.0  0.50399  0.97372  0.49400  1.0000
  C   C65       1.0  0.89541  0.94504  0.54819  1.0000
  C   C66       1.0  0.90450  0.89650  0.53804  1.0000
  P   P11       1.0  0.53919  0.81295  0.50497  1.0000
  O   O31       1.0  0.61528  0.81247  0.66252  1.0000
  O   O32       1.0  0.90452  0.78261  0.49629  1.0000
  O   O33       1.0  0.63689  0.79115  0.32023  1.0000
  H   H41       1.0  0.80237  0.95886  0.60427  1.0000
  H   H42       1.0  0.82074  0.87556  0.59017  1.0000
  H   H43       1.0  0.72004  0.88600  0.39103  1.0000
  H   H44       1.0  0.70888  0.96933  0.39661  1.0000
  C   C67       1.0  0.97844  0.12486  0.52745  1.0000
  C   C68       1.0  0.87088  0.09749  0.57469  1.0000
  C   C69       1.0  0.87879  0.04913  0.56690  1.0000
  C   C70       1.0  0.99601  0.02628  0.50600  1.0000
  C   C71       1.0  0.60459  0.05496  0.45181  1.0000
  C   C72       1.0  0.59550  0.10350  0.46196  1.0000
  P   P12       1.0  0.96081  0.18705  0.49503  1.0000
  O   O34       1.0  0.88472  0.18753  0.33748  1.0000
  O   O35       1.0  0.59548  0.21739  0.50371  1.0000
  O   O36       1.0  0.86311  0.20885  0.67977  1.0000
  H   H45       1.0  0.69762  0.04114  0.39573  1.0000
  H   H46       1.0  0.67925  0.12444  0.40983  1.0000
  H   H47       1.0  0.77996  0.11400  0.60897  1.0000
  H   H48       1.0  0.79112  0.03067  0.60339  1.0000
  C   C73       1.0  0.72844  0.37514  0.02745  1.0000
  C   C74       1.0  0.62087  0.40251  0.07469  1.0000
  C   C75       1.0  0.62879  0.45087  0.06690  1.0000
  C   C76       1.0  0.74601  0.47372  0.00600  1.0000
  C   C77       1.0  0.85460  0.44504  0.95181  1.0000
  C   C78       1.0  0.84550  0.39650  0.96196  1.0000
  P   P13       1.0  0.71081  0.31295  0.99503  1.0000
  O   O37       1.0  0.63472  0.31247  0.83748  1.0000
  O   O38       1.0  0.84548  0.28261  0.00371  1.0000
  O   O39       1.0  0.61311  0.29115  0.17977  1.0000
  H   H49       1.0  0.94763  0.45886  0.89573  1.0000
  H   H50       1.0  0.92925  0.37556  0.90983  1.0000
  H   H51       1.0  0.52996  0.38600  0.10897  1.0000
  H   H52       1.0  0.54112  0.46933  0.10339  1.0000
  C   C79       1.0  0.77156  0.62486  0.97255  1.0000
  C   C80       1.0  0.87912  0.59749  0.92531  1.0000
  C   C81       1.0  0.87121  0.54913  0.93310  1.0000
  C   C82       1.0  0.75399  0.52628  0.99400  1.0000
  C   C83       1.0  0.64540  0.55496  0.04819  1.0000
  C   C84       1.0  0.65450  0.60350  0.03804  1.0000
  P   P14       1.0  0.78919  0.68705  0.00497  1.0000
  O   O40       1.0  0.86528  0.68753  0.16252  1.0000
  O   O41       1.0  0.65451  0.71739  0.99629  1.0000
  O   O42       1.0  0.88689  0.70885  0.82023  1.0000
  H   H53       1.0  0.55238  0.54114  0.10427  1.0000
  H   H54       1.0  0.57074  0.62444  0.09017  1.0000
  H   H55       1.0  0.97004  0.61400  0.89103  1.0000
  H   H56       1.0  0.95888  0.53067  0.89661  1.0000
  C   C85       1.0  0.97844  0.87514  0.02745  1.0000
  C   C86       1.0  0.87087  0.90251  0.07469  1.0000
  C   C87       1.0  0.87879  0.95087  0.06690  1.0000
  C   C88       1.0  0.99601  0.97372  0.00600  1.0000
  C   C89       1.0  0.60459  0.94504  0.95181  1.0000
  C   C90       1.0  0.59550  0.89650  0.96196  1.0000
  P   P15       1.0  0.96081  0.81295  0.99503  1.0000
  O   O43       1.0  0.88472  0.81247  0.83748  1.0000
  O   O44       1.0  0.59549  0.78261  0.00371  1.0000
  O   O45       1.0  0.86311  0.79115  0.17977  1.0000
  H   H57       1.0  0.69762  0.95886  0.89573  1.0000
  H   H58       1.0  0.67925  0.87556  0.90983  1.0000
  H   H59       1.0  0.77996  0.88600  0.10897  1.0000
  H   H60       1.0  0.79112  0.96933  0.10339  1.0000
  C   C91       1.0  0.52156  0.12486  0.97255  1.0000
  C   C92       1.0  0.62913  0.09749  0.92531  1.0000
  C   C93       1.0  0.62121  0.04913  0.93310  1.0000
  C   C94       1.0  0.50399  0.02628  0.99400  1.0000
  C   C95       1.0  0.89541  0.05496  0.04819  1.0000
  C   C96       1.0  0.90450  0.10350  0.03804  1.0000
  P   P16       1.0  0.53919  0.18705  0.00497  1.0000
  O   O46       1.0  0.61528  0.18753  0.16252  1.0000
  O   O47       1.0  0.90452  0.21739  0.99629  1.0000
  O   O48       1.0  0.63688  0.20885  0.82023  1.0000
  H   H61       1.0  0.80237  0.04114  0.10427  1.0000
  H   H62       1.0  0.82074  0.12444  0.09017  1.0000
  H   H63       1.0  0.72004  0.11400  0.89103  1.0000
  H   H64       1.0  0.70888  0.03067  0.89661  1.0000
  Ce  Ce5       1.0  0.50000  0.26033  0.75000  1.0000
  Ce  Ce6       1.0  0.75000  0.76033  0.75000  1.0000
  Ce  Ce7       1.0  0.50000  0.73967  0.25000  1.0000
  Ce  Ce8       1.0  0.75000  0.23967  0.25000  1.0000
