data_image0
_chemical_formula_structural       C6PO3H4C6PO3H4C6PO3H4C6PO3H4C6PO3H4C6PO3H4C6PO3H4C6PO3H4Ba4C6PO3H4C6PO3H4C6PO3H4C6PO3H4C6PO3H4C6PO3H4C6PO3H4C6PO3H4Ba4
_chemical_formula_sum              "C96 P16 O48 H64 Ba8"
_cell_length_a       29.3205
_cell_length_b       11.1066
_cell_length_c       8.5273
_cell_angle_alpha    90
_cell_angle_beta     90.3611
_cell_angle_gamma    90

_space_group_name_H-M_alt    "P 1"
_space_group_IT_number       1

loop_
  _space_group_symop_operation_xyz
  'x, y, z'

loop_
  _atom_site_type_symbol
  _atom_site_label
  _atom_site_symmetry_multiplicity
  _atom_site_fract_x
  _atom_site_fract_y
  _atom_site_fract_z
  _atom_site_occupancy
  C   C1        1.0  0.36733  0.36871  0.40536  1.0000
  C   C2        1.0  0.34829  0.27402  0.48881  1.0000
  C   C3        1.0  0.30239  0.27520  0.52365  1.0000
  C   C4        1.0  0.27444  0.37227  0.47623  1.0000
  C   C5        1.0  0.29431  0.46370  0.38261  1.0000
  C   C6        1.0  0.34045  0.46172  0.34830  1.0000
  P   P1        1.0  0.42807  0.37499  0.38339  1.0000
  O   O1        1.0  0.45072  0.25799  0.49129  1.0000
  O   O2        1.0  0.44527  0.34284  0.19507  1.0000
  O   O3        1.0  0.45178  0.00702  0.45561  1.0000
  H   H1        1.0  0.36893  0.19969  0.53009  1.0000
  H   H2        1.0  0.29031  0.19921  0.58940  1.0000
  H   H3        1.0  0.27565  0.03893  0.33564  1.0000
  H   H4        1.0  0.35542  0.03438  0.28120  1.0000
  C   C7        1.0  0.13267  0.38129  0.59464  1.0000
  C   C8        1.0  0.15171  0.47598  0.51119  1.0000
  C   C9        1.0  0.19761  0.47480  0.47635  1.0000
  C   C10       1.0  0.22556  0.37772  0.52377  1.0000
  C   C11       1.0  0.20569  0.28630  0.61739  1.0000
  C   C12       1.0  0.15955  0.28828  0.65170  1.0000
  P   P2        1.0  0.07193  0.37501  0.61661  1.0000
  O   O4        1.0  0.04928  0.49201  0.50871  1.0000
  O   O5        1.0  0.05473  0.40716  0.80493  1.0000
  O   O6        1.0  0.04822  0.24299  0.54439  1.0000
  H   H5        1.0  0.13107  0.05031  0.46991  1.0000
  H   H6        1.0  0.20969  0.05079  0.41060  1.0000
  H   H7        1.0  0.22435  0.21108  0.66436  1.0000
  H   H8        1.0  0.14458  0.21562  0.71880  1.0000
  C   C13       1.0  0.86733  0.11871  0.40536  1.0000
  C   C14       1.0  0.84829  0.02402  0.48881  1.0000
  C   C15       1.0  0.80239  0.02519  0.52365  1.0000
  C   C16       1.0  0.77444  0.12227  0.47623  1.0000
  C   C17       1.0  0.79431  0.21369  0.38261  1.0000
  C   C18       1.0  0.84045  0.21172  0.34830  1.0000
  P   P3        1.0  0.92807  0.12498  0.38339  1.0000
  O   O7        1.0  0.95072  0.00799  0.49129  1.0000
  O   O8        1.0  0.94527  0.09284  0.19507  1.0000
  O   O9        1.0  0.95178  0.25701  0.45561  1.0000
  H   H9        1.0  0.86893  0.44969  0.53009  1.0000
  H   H10       1.0  0.79031  0.44921  0.58940  1.0000
  H   H11       1.0  0.77565  0.28892  0.33564  1.0000
  H   H12       1.0  0.85542  0.28438  0.28120  1.0000
  C   C19       1.0  0.63267  0.13129  0.59464  1.0000
  C   C20       1.0  0.65171  0.22598  0.51119  1.0000
  C   C21       1.0  0.69761  0.22481  0.47635  1.0000
  C   C22       1.0  0.72556  0.12773  0.52377  1.0000
  C   C23       1.0  0.70569  0.03630  0.61739  1.0000
  C   C24       1.0  0.65955  0.03828  0.65170  1.0000
  P   P4        1.0  0.57193  0.12501  0.61661  1.0000
  O   O10       1.0  0.54928  0.24201  0.50871  1.0000
  O   O11       1.0  0.55473  0.15716  0.80493  1.0000
  O   O12       1.0  0.54822  0.49299  0.54439  1.0000
  H   H13       1.0  0.63107  0.30031  0.46991  1.0000
  H   H14       1.0  0.70969  0.30079  0.41060  1.0000
  H   H15       1.0  0.72435  0.46107  0.66436  1.0000
  H   H16       1.0  0.64458  0.46562  0.71880  1.0000
  C   C25       1.0  0.63267  0.36871  0.09464  1.0000
  C   C26       1.0  0.65171  0.27402  0.01119  1.0000
  C   C27       1.0  0.69761  0.27520  0.97635  1.0000
  C   C28       1.0  0.72556  0.37227  0.02377  1.0000
  C   C29       1.0  0.70569  0.46370  0.11739  1.0000
  C   C30       1.0  0.65955  0.46172  0.15170  1.0000
  P   P5        1.0  0.57193  0.37499  0.11661  1.0000
  O   O13       1.0  0.54928  0.25799  0.00871  1.0000
  O   O14       1.0  0.55473  0.34284  0.30493  1.0000
  O   O15       1.0  0.54822  0.00702  0.04439  1.0000
  H   H17       1.0  0.63107  0.19969  0.96991  1.0000
  H   H18       1.0  0.70969  0.19921  0.91060  1.0000
  H   H19       1.0  0.72435  0.03893  0.16436  1.0000
  H   H20       1.0  0.64458  0.03438  0.21880  1.0000
  C   C31       1.0  0.86733  0.38129  0.90536  1.0000
  C   C32       1.0  0.84829  0.47598  0.98881  1.0000
  C   C33       1.0  0.80239  0.47480  0.02365  1.0000
  C   C34       1.0  0.77444  0.37772  0.97623  1.0000
  C   C35       1.0  0.79431  0.28630  0.88261  1.0000
  C   C36       1.0  0.84045  0.28828  0.84830  1.0000
  P   P6        1.0  0.92807  0.37501  0.88339  1.0000
  O   O16       1.0  0.95072  0.49201  0.99129  1.0000
  O   O17       1.0  0.94527  0.40716  0.69507  1.0000
  O   O18       1.0  0.95178  0.24299  0.95561  1.0000
  H   H21       1.0  0.86893  0.05031  0.03009  1.0000
  H   H22       1.0  0.79031  0.05079  0.08940  1.0000
  H   H23       1.0  0.77565  0.21108  0.83564  1.0000
  H   H24       1.0  0.85542  0.21562  0.78120  1.0000
  C   C37       1.0  0.13267  0.11871  0.09464  1.0000
  C   C38       1.0  0.15171  0.02402  0.01119  1.0000
  C   C39       1.0  0.19761  0.02519  0.97635  1.0000
  C   C40       1.0  0.22556  0.12227  0.02377  1.0000
  C   C41       1.0  0.20569  0.21369  0.11739  1.0000
  C   C42       1.0  0.15955  0.21172  0.15170  1.0000
  P   P7        1.0  0.07193  0.12498  0.11661  1.0000
  O   O19       1.0  0.04928  0.00799  0.00871  1.0000
  O   O20       1.0  0.05473  0.09284  0.30493  1.0000
  O   O21       1.0  0.04822  0.25701  0.04439  1.0000
  H   H25       1.0  0.13107  0.44969  0.96991  1.0000
  H   H26       1.0  0.20969  0.44921  0.91060  1.0000
  H   H27       1.0  0.22435  0.28892  0.16436  1.0000
  H   H28       1.0  0.14458  0.28438  0.21880  1.0000
  C   C43       1.0  0.36733  0.13129  0.90536  1.0000
  C   C44       1.0  0.34829  0.22598  0.98881  1.0000
  C   C45       1.0  0.30239  0.22481  0.02365  1.0000
  C   C46       1.0  0.27444  0.12773  0.97623  1.0000
  C   C47       1.0  0.29431  0.03630  0.88261  1.0000
  C   C48       1.0  0.34045  0.03828  0.84830  1.0000
  P   P8        1.0  0.42807  0.12501  0.88339  1.0000
  O   O22       1.0  0.45072  0.24201  0.99129  1.0000
  O   O23       1.0  0.44527  0.15716  0.69507  1.0000
  O   O24       1.0  0.45178  0.49299  0.95561  1.0000
  H   H29       1.0  0.36893  0.30031  0.03009  1.0000
  H   H30       1.0  0.29031  0.30079  0.08940  1.0000
  H   H31       1.0  0.27565  0.46107  0.83564  1.0000
  H   H32       1.0  0.35542  0.46562  0.78120  1.0000
  Ba  Ba1       1.0  0.00000  0.39837  0.25000  1.0000
  Ba  Ba2       1.0  0.50000  0.14837  0.25000  1.0000
  Ba  Ba3       1.0  0.00000  0.10163  0.75000  1.0000
  Ba  Ba4       1.0  0.50000  0.35163  0.75000  1.0000
  C   C49       1.0  0.36733  0.86871  0.40536  1.0000
  C   C50       1.0  0.34829  0.77402  0.48881  1.0000
  C   C51       1.0  0.30239  0.77519  0.52365  1.0000
  C   C52       1.0  0.27444  0.87228  0.47623  1.0000
  C   C53       1.0  0.29431  0.96369  0.38261  1.0000
  C   C54       1.0  0.34045  0.96172  0.34830  1.0000
  P   P9        1.0  0.42807  0.87499  0.38339  1.0000
  O   O25       1.0  0.45072  0.75799  0.49129  1.0000
  O   O26       1.0  0.44527  0.84284  0.19507  1.0000
  O   O27       1.0  0.45178  0.50701  0.45561  1.0000
  H   H33       1.0  0.36893  0.69969  0.53009  1.0000
  H   H34       1.0  0.29031  0.69921  0.58940  1.0000
  H   H35       1.0  0.27565  0.53892  0.33564  1.0000
  H   H36       1.0  0.35542  0.53438  0.28120  1.0000
  C   C55       1.0  0.13267  0.88129  0.59464  1.0000
  C   C56       1.0  0.15171  0.97598  0.51119  1.0000
  C   C57       1.0  0.19761  0.97480  0.47635  1.0000
  C   C58       1.0  0.22556  0.87772  0.52377  1.0000
  C   C59       1.0  0.20569  0.78630  0.61739  1.0000
  C   C60       1.0  0.15955  0.78828  0.65170  1.0000
  P   P10       1.0  0.07193  0.87501  0.61661  1.0000
  O   O28       1.0  0.04928  0.99201  0.50871  1.0000
  O   O29       1.0  0.05473  0.90716  0.80493  1.0000
  O   O30       1.0  0.04822  0.74299  0.54439  1.0000
  H   H37       1.0  0.13107  0.55031  0.46991  1.0000
  H   H38       1.0  0.20969  0.55079  0.41060  1.0000
  H   H39       1.0  0.22435  0.71108  0.66436  1.0000
  H   H40       1.0  0.14458  0.71562  0.71880  1.0000
  C   C61       1.0  0.86733  0.61871  0.40536  1.0000
  C   C62       1.0  0.84829  0.52402  0.48881  1.0000
  C   C63       1.0  0.80239  0.52519  0.52365  1.0000
  C   C64       1.0  0.77444  0.62227  0.47623  1.0000
  C   C65       1.0  0.79431  0.71369  0.38261  1.0000
  C   C66       1.0  0.84045  0.71172  0.34830  1.0000
  P   P11       1.0  0.92807  0.62499  0.38339  1.0000
  O   O31       1.0  0.95072  0.50799  0.49129  1.0000
  O   O32       1.0  0.94527  0.59284  0.19507  1.0000
  O   O33       1.0  0.95178  0.75701  0.45561  1.0000
  H   H41       1.0  0.86893  0.94969  0.53009  1.0000
  H   H42       1.0  0.79031  0.94921  0.58940  1.0000
  H   H43       1.0  0.77565  0.78892  0.33564  1.0000
  H   H44       1.0  0.85542  0.78438  0.28120  1.0000
  C   C67       1.0  0.63267  0.63129  0.59464  1.0000
  C   C68       1.0  0.65171  0.72598  0.51119  1.0000
  C   C69       1.0  0.69761  0.72481  0.47635  1.0000
  C   C70       1.0  0.72556  0.62772  0.52377  1.0000
  C   C71       1.0  0.70569  0.53630  0.61739  1.0000
  C   C72       1.0  0.65955  0.53828  0.65170  1.0000
  P   P12       1.0  0.57193  0.62501  0.61661  1.0000
  O   O34       1.0  0.54928  0.74201  0.50871  1.0000
  O   O35       1.0  0.55473  0.65716  0.80493  1.0000
  O   O36       1.0  0.54822  0.99299  0.54439  1.0000
  H   H45       1.0  0.63107  0.80031  0.46991  1.0000
  H   H46       1.0  0.70969  0.80079  0.41060  1.0000
  H   H47       1.0  0.72435  0.96108  0.66436  1.0000
  H   H48       1.0  0.64458  0.96562  0.71880  1.0000
  C   C73       1.0  0.63267  0.86871  0.09464  1.0000
  C   C74       1.0  0.65171  0.77402  0.01119  1.0000
  C   C75       1.0  0.69761  0.77519  0.97635  1.0000
  C   C76       1.0  0.72556  0.87228  0.02377  1.0000
  C   C77       1.0  0.70569  0.96369  0.11739  1.0000
  C   C78       1.0  0.65955  0.96172  0.15170  1.0000
  P   P13       1.0  0.57193  0.87499  0.11661  1.0000
  O   O37       1.0  0.54928  0.75799  0.00871  1.0000
  O   O38       1.0  0.55473  0.84284  0.30493  1.0000
  O   O39       1.0  0.54822  0.50701  0.04439  1.0000
  H   H49       1.0  0.63107  0.69969  0.96991  1.0000
  H   H50       1.0  0.70969  0.69921  0.91060  1.0000
  H   H51       1.0  0.72435  0.53892  0.16436  1.0000
  H   H52       1.0  0.64458  0.53438  0.21880  1.0000
  C   C79       1.0  0.86733  0.88129  0.90536  1.0000
  C   C80       1.0  0.84829  0.97598  0.98881  1.0000
  C   C81       1.0  0.80239  0.97480  0.02365  1.0000
  C   C82       1.0  0.77444  0.87772  0.97623  1.0000
  C   C83       1.0  0.79431  0.78630  0.88261  1.0000
  C   C84       1.0  0.84045  0.78828  0.84830  1.0000
  P   P14       1.0  0.92807  0.87501  0.88339  1.0000
  O   O40       1.0  0.95072  0.99201  0.99129  1.0000
  O   O41       1.0  0.94527  0.90716  0.69507  1.0000
  O   O42       1.0  0.95178  0.74299  0.95561  1.0000
  H   H53       1.0  0.86893  0.55031  0.03009  1.0000
  H   H54       1.0  0.79031  0.55079  0.08940  1.0000
  H   H55       1.0  0.77565  0.71108  0.83564  1.0000
  H   H56       1.0  0.85542  0.71562  0.78120  1.0000
  C   C85       1.0  0.13267  0.61871  0.09464  1.0000
  C   C86       1.0  0.15171  0.52402  0.01119  1.0000
  C   C87       1.0  0.19761  0.52519  0.97635  1.0000
  C   C88       1.0  0.22556  0.62227  0.02377  1.0000
  C   C89       1.0  0.20569  0.71369  0.11739  1.0000
  C   C90       1.0  0.15955  0.71172  0.15170  1.0000
  P   P15       1.0  0.07193  0.62499  0.11661  1.0000
  O   O43       1.0  0.04928  0.50799  0.00871  1.0000
  O   O44       1.0  0.05473  0.59284  0.30493  1.0000
  O   O45       1.0  0.04822  0.75701  0.04439  1.0000
  H   H57       1.0  0.13107  0.94969  0.96991  1.0000
  H   H58       1.0  0.20969  0.94921  0.91060  1.0000
  H   H59       1.0  0.22435  0.78892  0.16436  1.0000
  H   H60       1.0  0.14458  0.78438  0.21880  1.0000
  C   C91       1.0  0.36733  0.63129  0.90536  1.0000
  C   C92       1.0  0.34829  0.72598  0.98881  1.0000
  C   C93       1.0  0.30239  0.72481  0.02365  1.0000
  C   C94       1.0  0.27444  0.62772  0.97623  1.0000
  C   C95       1.0  0.29431  0.53630  0.88261  1.0000
  C   C96       1.0  0.34045  0.53828  0.84830  1.0000
  P   P16       1.0  0.42807  0.62501  0.88339  1.0000
  O   O46       1.0  0.45072  0.74201  0.99129  1.0000
  O   O47       1.0  0.44527  0.65716  0.69507  1.0000
  O   O48       1.0  0.45178  0.99299  0.95561  1.0000
  H   H61       1.0  0.36893  0.80031  0.03009  1.0000
  H   H62       1.0  0.29031  0.80079  0.08940  1.0000
  H   H63       1.0  0.27565  0.96108  0.83564  1.0000
  H   H64       1.0  0.35542  0.96562  0.78120  1.0000
  Ba  Ba5       1.0  0.00000  0.89837  0.25000  1.0000
  Ba  Ba6       1.0  0.50000  0.64837  0.25000  1.0000
  Ba  Ba7       1.0  0.00000  0.60163  0.75000  1.0000
  Ba  Ba8       1.0  0.50000  0.85163  0.75000  1.0000
