data_image0
_chemical_formula_structural       C6PO3H4C6PO3H8C6PO3H4C6PO3C6PO3H4C6PO3H8C6PO3H4C6PO3La4C6PO3H4C6PO3H8C6PO3H4C6PO3C6PO3H4C6PO3H8C6PO3H4C6PO3La4
_chemical_formula_sum              "C96 P16 O48 H64 La8"
_cell_length_a       11.2612
_cell_length_b       28.7824
_cell_length_c       8.4244
_cell_angle_alpha    90
_cell_angle_beta     70.6989
_cell_angle_gamma    90

_space_group_name_H-M_alt    "P 1"
_space_group_IT_number       1

loop_
  _space_group_symop_operation_xyz
  'x, y, z'

loop_
  _atom_site_type_symbol
  _atom_site_label
  _atom_site_symmetry_multiplicity
  _atom_site_fract_x
  _atom_site_fract_y
  _atom_site_fract_z
  _atom_site_occupancy
  C   C1        1.0  0.03828  0.12302  0.47047  1.0000
  C   C2        1.0  0.14271  0.09449  0.42737  1.0000
  C   C3        1.0  0.12864  0.04649  0.43520  1.0000
  C   C4        1.0  0.00807  0.02587  0.49402  1.0000
  C   C5        1.0  0.40337  0.05595  0.54666  1.0000
  C   C6        1.0  0.41868  0.10374  0.53414  1.0000
  P   P1        1.0  0.05534  0.18403  0.50738  1.0000
  O   O1        1.0  0.14930  0.21243  0.33846  1.0000
  O   O2        1.0  0.41431  0.20816  0.50354  1.0000
  O   O3        1.0  0.11474  0.18504  0.67683  1.0000
  H   H1        1.0  0.30865  0.04399  0.60395  1.0000
  H   H2        1.0  0.33691  0.12568  0.58513  1.0000
  H   H3        1.0  0.23516  0.10968  0.39320  1.0000
  H   H4        1.0  0.21415  0.02671  0.39975  1.0000
  C   C7        1.0  0.46173  0.87698  0.52953  1.0000
  C   C8        1.0  0.35729  0.90551  0.57263  1.0000
  C   C9        1.0  0.37137  0.95351  0.56480  1.0000
  C   C10       1.0  0.49194  0.97413  0.50598  1.0000
  C   C11       1.0  0.09663  0.94405  0.45334  1.0000
  C   C12       1.0  0.08132  0.89626  0.46586  1.0000
  P   P2        1.0  0.44466  0.81597  0.49262  1.0000
  O   O4        1.0  0.35070  0.78757  0.66154  1.0000
  O   O5        1.0  0.08569  0.79184  0.49646  1.0000
  O   O6        1.0  0.38526  0.81496  0.32317  1.0000
  H   H5        1.0  0.19135  0.95601  0.39605  1.0000
  H   H6        1.0  0.16309  0.87432  0.41487  1.0000
  H   H7        1.0  0.26484  0.89032  0.60680  1.0000
  H   H8        1.0  0.28586  0.97329  0.60025  1.0000
  H   H9        1.0  0.05865  0.54399  0.60395  1.0000
  H   H10       1.0  0.08691  0.62568  0.58513  1.0000
  H   H11       1.0  0.48516  0.60968  0.39320  1.0000
  H   H12       1.0  0.46415  0.52671  0.39975  1.0000
  C   C13       1.0  0.28828  0.62302  0.47047  1.0000
  C   C14       1.0  0.39271  0.59449  0.42737  1.0000
  C   C15       1.0  0.37863  0.54649  0.43520  1.0000
  C   C16       1.0  0.25806  0.52587  0.49402  1.0000
  C   C17       1.0  0.15337  0.55595  0.54666  1.0000
  C   C18       1.0  0.16868  0.60374  0.53414  1.0000
  P   P3        1.0  0.30534  0.68403  0.50738  1.0000
  O   O7        1.0  0.39930  0.71243  0.33846  1.0000
  O   O8        1.0  0.16431  0.70816  0.50354  1.0000
  O   O9        1.0  0.36474  0.68504  0.67683  1.0000
  H   H13       1.0  0.44135  0.45601  0.39605  1.0000
  H   H14       1.0  0.41309  0.37432  0.41487  1.0000
  H   H15       1.0  0.01484  0.39032  0.60680  1.0000
  H   H16       1.0  0.03586  0.47329  0.60025  1.0000
  C   C19       1.0  0.21173  0.37698  0.52953  1.0000
  C   C20       1.0  0.10729  0.40551  0.57263  1.0000
  C   C21       1.0  0.12137  0.45351  0.56480  1.0000
  C   C22       1.0  0.24194  0.47413  0.50598  1.0000
  C   C23       1.0  0.34663  0.44405  0.45334  1.0000
  C   C24       1.0  0.33132  0.39626  0.46586  1.0000
  P   P4        1.0  0.19466  0.31597  0.49262  1.0000
  O   O10       1.0  0.10070  0.28757  0.66154  1.0000
  O   O11       1.0  0.33569  0.29184  0.49646  1.0000
  O   O12       1.0  0.13526  0.31496  0.32317  1.0000
  C   C25       1.0  0.46173  0.12302  0.02953  1.0000
  C   C26       1.0  0.35729  0.09449  0.07263  1.0000
  C   C27       1.0  0.37137  0.04649  0.06480  1.0000
  C   C28       1.0  0.49194  0.02587  0.00598  1.0000
  C   C29       1.0  0.09663  0.05595  0.95334  1.0000
  C   C30       1.0  0.08132  0.10374  0.96586  1.0000
  P   P5        1.0  0.44466  0.18403  0.99262  1.0000
  O   O13       1.0  0.35070  0.21243  0.16154  1.0000
  O   O14       1.0  0.08569  0.20816  0.99646  1.0000
  O   O15       1.0  0.38526  0.18504  0.82317  1.0000
  H   H17       1.0  0.19135  0.04399  0.89605  1.0000
  H   H18       1.0  0.16309  0.12568  0.91487  1.0000
  H   H19       1.0  0.26484  0.10968  0.10680  1.0000
  H   H20       1.0  0.28586  0.02671  0.10025  1.0000
  C   C31       1.0  0.03828  0.87698  0.97047  1.0000
  C   C32       1.0  0.14271  0.90551  0.92737  1.0000
  C   C33       1.0  0.12864  0.95351  0.93520  1.0000
  C   C34       1.0  0.00807  0.97413  0.99402  1.0000
  C   C35       1.0  0.40337  0.94405  0.04666  1.0000
  C   C36       1.0  0.41868  0.89626  0.03414  1.0000
  P   P6        1.0  0.05534  0.81597  0.00738  1.0000
  O   O16       1.0  0.14930  0.78757  0.83846  1.0000
  O   O17       1.0  0.41431  0.79184  0.00354  1.0000
  O   O18       1.0  0.11474  0.81496  0.17683  1.0000
  H   H21       1.0  0.30865  0.95601  0.10395  1.0000
  H   H22       1.0  0.33691  0.87432  0.08513  1.0000
  H   H23       1.0  0.23516  0.89032  0.89320  1.0000
  H   H24       1.0  0.21414  0.97329  0.89975  1.0000
  H   H25       1.0  0.44135  0.54399  0.89605  1.0000
  H   H26       1.0  0.41309  0.62568  0.91487  1.0000
  H   H27       1.0  0.01484  0.60968  0.10680  1.0000
  H   H28       1.0  0.03586  0.52671  0.10025  1.0000
  C   C37       1.0  0.21173  0.62302  0.02953  1.0000
  C   C38       1.0  0.10729  0.59449  0.07263  1.0000
  C   C39       1.0  0.12137  0.54649  0.06480  1.0000
  C   C40       1.0  0.24194  0.52587  0.00598  1.0000
  C   C41       1.0  0.34663  0.55595  0.95334  1.0000
  C   C42       1.0  0.33132  0.60374  0.96586  1.0000
  P   P7        1.0  0.19466  0.68403  0.99262  1.0000
  O   O19       1.0  0.10070  0.71243  0.16154  1.0000
  O   O20       1.0  0.33569  0.70816  0.99646  1.0000
  O   O21       1.0  0.13526  0.68504  0.82317  1.0000
  H   H29       1.0  0.05865  0.45601  0.10395  1.0000
  H   H30       1.0  0.08691  0.37432  0.08513  1.0000
  H   H31       1.0  0.48516  0.39032  0.89320  1.0000
  H   H32       1.0  0.46415  0.47329  0.89975  1.0000
  C   C43       1.0  0.28828  0.37698  0.97047  1.0000
  C   C44       1.0  0.39271  0.40551  0.92737  1.0000
  C   C45       1.0  0.37863  0.45351  0.93520  1.0000
  C   C46       1.0  0.25807  0.47413  0.99402  1.0000
  C   C47       1.0  0.15337  0.44405  0.04666  1.0000
  C   C48       1.0  0.16868  0.39626  0.03414  1.0000
  P   P8        1.0  0.30534  0.31597  0.00738  1.0000
  O   O22       1.0  0.39930  0.28757  0.83846  1.0000
  O   O23       1.0  0.16431  0.29184  0.00354  1.0000
  O   O24       1.0  0.36474  0.31496  0.17683  1.0000
  La  La1       1.0  0.00000  0.25721  0.25000  1.0000
  La  La2       1.0  0.25000  0.75721  0.25000  1.0000
  La  La3       1.0  0.00000  0.74279  0.75000  1.0000
  La  La4       1.0  0.25000  0.24279  0.75000  1.0000
  C   C49       1.0  0.53828  0.12302  0.47047  1.0000
  C   C50       1.0  0.64271  0.09449  0.42737  1.0000
  C   C51       1.0  0.62864  0.04649  0.43520  1.0000
  C   C52       1.0  0.50806  0.02587  0.49402  1.0000
  C   C53       1.0  0.90337  0.05595  0.54666  1.0000
  C   C54       1.0  0.91868  0.10374  0.53414  1.0000
  P   P9        1.0  0.55534  0.18403  0.50738  1.0000
  O   O25       1.0  0.64930  0.21243  0.33846  1.0000
  O   O26       1.0  0.91431  0.20816  0.50354  1.0000
  O   O27       1.0  0.61474  0.18504  0.67683  1.0000
  H   H33       1.0  0.80865  0.04399  0.60395  1.0000
  H   H34       1.0  0.83691  0.12568  0.58513  1.0000
  H   H35       1.0  0.73516  0.10968  0.39320  1.0000
  H   H36       1.0  0.71415  0.02671  0.39975  1.0000
  C   C55       1.0  0.96173  0.87698  0.52953  1.0000
  C   C56       1.0  0.85729  0.90551  0.57263  1.0000
  C   C57       1.0  0.87137  0.95351  0.56480  1.0000
  C   C58       1.0  0.99194  0.97413  0.50598  1.0000
  C   C59       1.0  0.59663  0.94405  0.45334  1.0000
  C   C60       1.0  0.58132  0.89626  0.46586  1.0000
  P   P10       1.0  0.94466  0.81597  0.49262  1.0000
  O   O28       1.0  0.85070  0.78757  0.66154  1.0000
  O   O29       1.0  0.58569  0.79184  0.49646  1.0000
  O   O30       1.0  0.88526  0.81496  0.32317  1.0000
  H   H37       1.0  0.69135  0.95601  0.39605  1.0000
  H   H38       1.0  0.66309  0.87432  0.41487  1.0000
  H   H39       1.0  0.76484  0.89032  0.60680  1.0000
  H   H40       1.0  0.78585  0.97329  0.60025  1.0000
  H   H41       1.0  0.55865  0.54399  0.60395  1.0000
  H   H42       1.0  0.58691  0.62568  0.58513  1.0000
  H   H43       1.0  0.98516  0.60968  0.39320  1.0000
  H   H44       1.0  0.96415  0.52671  0.39975  1.0000
  C   C61       1.0  0.78828  0.62302  0.47047  1.0000
  C   C62       1.0  0.89271  0.59449  0.42737  1.0000
  C   C63       1.0  0.87864  0.54649  0.43520  1.0000
  C   C64       1.0  0.75807  0.52587  0.49402  1.0000
  C   C65       1.0  0.65337  0.55595  0.54666  1.0000
  C   C66       1.0  0.66868  0.60374  0.53414  1.0000
  P   P11       1.0  0.80534  0.68403  0.50738  1.0000
  O   O31       1.0  0.89930  0.71243  0.33846  1.0000
  O   O32       1.0  0.66431  0.70816  0.50354  1.0000
  O   O33       1.0  0.86474  0.68504  0.67683  1.0000
  H   H45       1.0  0.94135  0.45601  0.39605  1.0000
  H   H46       1.0  0.91309  0.37432  0.41487  1.0000
  H   H47       1.0  0.51484  0.39032  0.60680  1.0000
  H   H48       1.0  0.53586  0.47329  0.60025  1.0000
  C   C67       1.0  0.71173  0.37698  0.52953  1.0000
  C   C68       1.0  0.60729  0.40551  0.57263  1.0000
  C   C69       1.0  0.62137  0.45351  0.56480  1.0000
  C   C70       1.0  0.74194  0.47413  0.50598  1.0000
  C   C71       1.0  0.84663  0.44405  0.45334  1.0000
  C   C72       1.0  0.83132  0.39626  0.46586  1.0000
  P   P12       1.0  0.69466  0.31597  0.49262  1.0000
  O   O34       1.0  0.60070  0.28757  0.66154  1.0000
  O   O35       1.0  0.83569  0.29184  0.49646  1.0000
  O   O36       1.0  0.63526  0.31496  0.32317  1.0000
  C   C73       1.0  0.96173  0.12302  0.02953  1.0000
  C   C74       1.0  0.85729  0.09449  0.07263  1.0000
  C   C75       1.0  0.87136  0.04649  0.06480  1.0000
  C   C76       1.0  0.99194  0.02587  0.00598  1.0000
  C   C77       1.0  0.59663  0.05595  0.95334  1.0000
  C   C78       1.0  0.58132  0.10374  0.96586  1.0000
  P   P13       1.0  0.94466  0.18403  0.99262  1.0000
  O   O37       1.0  0.85070  0.21243  0.16154  1.0000
  O   O38       1.0  0.58569  0.20816  0.99646  1.0000
  O   O39       1.0  0.88526  0.18504  0.82317  1.0000
  H   H49       1.0  0.69135  0.04399  0.89605  1.0000
  H   H50       1.0  0.66309  0.12568  0.91487  1.0000
  H   H51       1.0  0.76484  0.10968  0.10680  1.0000
  H   H52       1.0  0.78586  0.02671  0.10025  1.0000
  C   C79       1.0  0.53828  0.87698  0.97047  1.0000
  C   C80       1.0  0.64271  0.90551  0.92737  1.0000
  C   C81       1.0  0.62864  0.95351  0.93520  1.0000
  C   C82       1.0  0.50807  0.97413  0.99402  1.0000
  C   C83       1.0  0.90337  0.94405  0.04666  1.0000
  C   C84       1.0  0.91868  0.89626  0.03414  1.0000
  P   P14       1.0  0.55534  0.81597  0.00738  1.0000
  O   O40       1.0  0.64930  0.78757  0.83846  1.0000
  O   O41       1.0  0.91431  0.79184  0.00354  1.0000
  O   O42       1.0  0.61474  0.81496  0.17683  1.0000
  H   H53       1.0  0.80865  0.95601  0.10395  1.0000
  H   H54       1.0  0.83691  0.87432  0.08513  1.0000
  H   H55       1.0  0.73516  0.89032  0.89320  1.0000
  H   H56       1.0  0.71414  0.97329  0.89975  1.0000
  H   H57       1.0  0.94135  0.54399  0.89605  1.0000
  H   H58       1.0  0.91309  0.62568  0.91487  1.0000
  H   H59       1.0  0.51484  0.60968  0.10680  1.0000
  H   H60       1.0  0.53586  0.52671  0.10025  1.0000
  C   C85       1.0  0.71173  0.62302  0.02953  1.0000
  C   C86       1.0  0.60729  0.59449  0.07263  1.0000
  C   C87       1.0  0.62137  0.54649  0.06480  1.0000
  C   C88       1.0  0.74194  0.52587  0.00598  1.0000
  C   C89       1.0  0.84663  0.55595  0.95334  1.0000
  C   C90       1.0  0.83132  0.60374  0.96586  1.0000
  P   P15       1.0  0.69466  0.68403  0.99262  1.0000
  O   O43       1.0  0.60070  0.71243  0.16154  1.0000
  O   O44       1.0  0.83569  0.70816  0.99646  1.0000
  O   O45       1.0  0.63526  0.68504  0.82317  1.0000
  H   H61       1.0  0.55865  0.45601  0.10395  1.0000
  H   H62       1.0  0.58691  0.37432  0.08513  1.0000
  H   H63       1.0  0.98516  0.39032  0.89320  1.0000
  H   H64       1.0  0.96414  0.47329  0.89975  1.0000
  C   C91       1.0  0.78828  0.37698  0.97047  1.0000
  C   C92       1.0  0.89271  0.40551  0.92737  1.0000
  C   C93       1.0  0.87863  0.45351  0.93520  1.0000
  C   C94       1.0  0.75806  0.47413  0.99402  1.0000
  C   C95       1.0  0.65337  0.44405  0.04666  1.0000
  C   C96       1.0  0.66868  0.39626  0.03414  1.0000
  P   P16       1.0  0.80534  0.31597  0.00738  1.0000
  O   O46       1.0  0.89930  0.28757  0.83846  1.0000
  O   O47       1.0  0.66431  0.29184  0.00354  1.0000
  O   O48       1.0  0.86474  0.31496  0.17683  1.0000
  La  La5       1.0  0.50000  0.25721  0.25000  1.0000
  La  La6       1.0  0.75000  0.75721  0.25000  1.0000
  La  La7       1.0  0.50000  0.74279  0.75000  1.0000
  La  La8       1.0  0.75000  0.24279  0.75000  1.0000
