data_image0
_chemical_formula_structural       C6PO3H4C6PO3H4C6PO3H4C6PO3H4C6PO3H4C6PO3H4C6PO3H4C6PO3H4Nd4C6PO3H4C6PO3H4C6PO3H4C6PO3H4C6PO3H4C6PO3H4C6PO3H4C6PO3H4Nd4
_chemical_formula_sum              "C96 P16 O48 H64 Nd8"
_cell_length_a       11.1276
_cell_length_b       28.7601
_cell_length_c       8.2869
_cell_angle_alpha    90
_cell_angle_beta     70.9879
_cell_angle_gamma    90

_space_group_name_H-M_alt    "P 1"
_space_group_IT_number       1

loop_
  _space_group_symop_operation_xyz
  'x, y, z'

loop_
  _atom_site_type_symbol
  _atom_site_label
  _atom_site_symmetry_multiplicity
  _atom_site_fract_x
  _atom_site_fract_y
  _atom_site_fract_z
  _atom_site_occupancy
  C   C1        1.0  0.27054  0.37525  0.47175  1.0000
  C   C2        1.0  0.37918  0.40249  0.42458  1.0000
  C   C3        1.0  0.37170  0.45080  0.43252  1.0000
  C   C4        1.0  0.25374  0.47375  0.49414  1.0000
  C   C5        1.0  0.14405  0.44519  0.54974  1.0000
  C   C6        1.0  0.15279  0.39668  0.53955  1.0000
  P   P1        1.0  0.28861  0.31318  0.50439  1.0000
  O   O1        1.0  0.36650  0.31289  0.66262  1.0000
  O   O2        1.0  0.15329  0.28245  0.49546  1.0000
  O   O3        1.0  0.38695  0.29117  0.31914  1.0000
  H   H1        1.0  0.05051  0.45911  0.60690  1.0000
  H   H2        1.0  0.06841  0.37580  0.59349  1.0000
  H   H3        1.0  0.47063  0.38582  0.39061  1.0000
  H   H4        1.0  0.46025  0.46918  0.39583  1.0000
  C   C7        1.0  0.22947  0.62475  0.52825  1.0000
  C   C8        1.0  0.12082  0.59751  0.57542  1.0000
  C   C9        1.0  0.12830  0.54920  0.56748  1.0000
  C   C10       1.0  0.24626  0.52625  0.50586  1.0000
  C   C11       1.0  0.35595  0.55481  0.45026  1.0000
  C   C12       1.0  0.34720  0.60332  0.46045  1.0000
  P   P2        1.0  0.21139  0.68682  0.49561  1.0000
  O   O4        1.0  0.13350  0.68711  0.33738  1.0000
  O   O5        1.0  0.34670  0.71755  0.50454  1.0000
  O   O6        1.0  0.11306  0.70883  0.68086  1.0000
  H   H5        1.0  0.44949  0.54089  0.39310  1.0000
  H   H6        1.0  0.43159  0.62420  0.40651  1.0000
  H   H7        1.0  0.02937  0.61418  0.60939  1.0000
  H   H8        1.0  0.03975  0.53082  0.60417  1.0000
  C   C13       1.0  0.02053  0.87525  0.47175  1.0000
  C   C14       1.0  0.12918  0.90249  0.42458  1.0000
  C   C15       1.0  0.12169  0.95080  0.43252  1.0000
  C   C16       1.0  0.00374  0.97375  0.49414  1.0000
  C   C17       1.0  0.39405  0.94519  0.54974  1.0000
  C   C18       1.0  0.40280  0.89668  0.53955  1.0000
  P   P3        1.0  0.03860  0.81318  0.50439  1.0000
  O   O7        1.0  0.11650  0.81289  0.66262  1.0000
  O   O8        1.0  0.40330  0.78245  0.49546  1.0000
  O   O9        1.0  0.13695  0.79117  0.31914  1.0000
  H   H9        1.0  0.30051  0.95911  0.60690  1.0000
  H   H10       1.0  0.31841  0.87580  0.59349  1.0000
  H   H11       1.0  0.22063  0.88582  0.39061  1.0000
  H   H12       1.0  0.21025  0.96918  0.39583  1.0000
  C   C19       1.0  0.47947  0.12475  0.52825  1.0000
  C   C20       1.0  0.37082  0.09751  0.57542  1.0000
  C   C21       1.0  0.37830  0.04920  0.56748  1.0000
  C   C22       1.0  0.49626  0.02625  0.50586  1.0000
  C   C23       1.0  0.10594  0.05481  0.45026  1.0000
  C   C24       1.0  0.09721  0.10332  0.46045  1.0000
  P   P4        1.0  0.46140  0.18682  0.49561  1.0000
  O   O10       1.0  0.38350  0.18711  0.33738  1.0000
  O   O11       1.0  0.09671  0.21755  0.50454  1.0000
  O   O12       1.0  0.36306  0.20883  0.68086  1.0000
  H   H13       1.0  0.19948  0.04089  0.39310  1.0000
  H   H14       1.0  0.18158  0.12420  0.40651  1.0000
  H   H15       1.0  0.27937  0.11418  0.60939  1.0000
  H   H16       1.0  0.28975  0.03082  0.60417  1.0000
  C   C25       1.0  0.22947  0.37525  0.02825  1.0000
  C   C26       1.0  0.12082  0.40249  0.07542  1.0000
  C   C27       1.0  0.12831  0.45080  0.06748  1.0000
  C   C28       1.0  0.24626  0.47375  0.00586  1.0000
  C   C29       1.0  0.35595  0.44519  0.95026  1.0000
  C   C30       1.0  0.34720  0.39668  0.96045  1.0000
  P   P5        1.0  0.21139  0.31318  0.99561  1.0000
  O   O13       1.0  0.13350  0.31289  0.83738  1.0000
  O   O14       1.0  0.34670  0.28245  0.00454  1.0000
  O   O15       1.0  0.11306  0.29117  0.18086  1.0000
  H   H17       1.0  0.44949  0.45911  0.89310  1.0000
  H   H18       1.0  0.43158  0.37580  0.90651  1.0000
  H   H19       1.0  0.02937  0.38582  0.10939  1.0000
  H   H20       1.0  0.03975  0.46918  0.10417  1.0000
  C   C31       1.0  0.27053  0.62475  0.97175  1.0000
  C   C32       1.0  0.37918  0.59751  0.92458  1.0000
  C   C33       1.0  0.37170  0.54920  0.93252  1.0000
  C   C34       1.0  0.25374  0.52625  0.99414  1.0000
  C   C35       1.0  0.14405  0.55481  0.04974  1.0000
  C   C36       1.0  0.15279  0.60332  0.03955  1.0000
  P   P6        1.0  0.28861  0.68682  0.00439  1.0000
  O   O16       1.0  0.36650  0.68711  0.16262  1.0000
  O   O17       1.0  0.15329  0.71755  0.99546  1.0000
  O   O18       1.0  0.38694  0.70883  0.81914  1.0000
  H   H21       1.0  0.05051  0.54089  0.10690  1.0000
  H   H22       1.0  0.06842  0.62420  0.09349  1.0000
  H   H23       1.0  0.47063  0.61418  0.89061  1.0000
  H   H24       1.0  0.46025  0.53082  0.89583  1.0000
  C   C37       1.0  0.47947  0.87525  0.02825  1.0000
  C   C38       1.0  0.37082  0.90249  0.07542  1.0000
  C   C39       1.0  0.37831  0.95080  0.06748  1.0000
  C   C40       1.0  0.49626  0.97375  0.00586  1.0000
  C   C41       1.0  0.10594  0.94519  0.95026  1.0000
  C   C42       1.0  0.09720  0.89668  0.96045  1.0000
  P   P7        1.0  0.46140  0.81318  0.99561  1.0000
  O   O19       1.0  0.38350  0.81289  0.83738  1.0000
  O   O20       1.0  0.09670  0.78245  0.00454  1.0000
  O   O21       1.0  0.36306  0.79117  0.18086  1.0000
  H   H25       1.0  0.19948  0.95911  0.89310  1.0000
  H   H26       1.0  0.18158  0.87580  0.90651  1.0000
  H   H27       1.0  0.27937  0.88582  0.10939  1.0000
  H   H28       1.0  0.28975  0.96918  0.10417  1.0000
  C   C43       1.0  0.02053  0.12475  0.97175  1.0000
  C   C44       1.0  0.12918  0.09751  0.92458  1.0000
  C   C45       1.0  0.12169  0.04920  0.93252  1.0000
  C   C46       1.0  0.00374  0.02625  0.99414  1.0000
  C   C47       1.0  0.39406  0.05481  0.04974  1.0000
  C   C48       1.0  0.40280  0.10332  0.03955  1.0000
  P   P8        1.0  0.03861  0.18682  0.00439  1.0000
  O   O22       1.0  0.11650  0.18711  0.16262  1.0000
  O   O23       1.0  0.40329  0.21755  0.99546  1.0000
  O   O24       1.0  0.13695  0.20883  0.81914  1.0000
  H   H29       1.0  0.30051  0.04089  0.10690  1.0000
  H   H30       1.0  0.31842  0.12420  0.09349  1.0000
  H   H31       1.0  0.22063  0.11418  0.89061  1.0000
  H   H32       1.0  0.21025  0.03082  0.89583  1.0000
  Nd  Nd1       1.0  0.00000  0.26041  0.75000  1.0000
  Nd  Nd2       1.0  0.25000  0.76041  0.75000  1.0000
  Nd  Nd3       1.0  0.00000  0.73959  0.25000  1.0000
  Nd  Nd4       1.0  0.25000  0.23959  0.25000  1.0000
  C   C49       1.0  0.77054  0.37525  0.47175  1.0000
  C   C50       1.0  0.87918  0.40249  0.42458  1.0000
  C   C51       1.0  0.87169  0.45080  0.43252  1.0000
  C   C52       1.0  0.75374  0.47375  0.49414  1.0000
  C   C53       1.0  0.64406  0.44519  0.54974  1.0000
  C   C54       1.0  0.65280  0.39668  0.53955  1.0000
  P   P9        1.0  0.78861  0.31318  0.50439  1.0000
  O   O25       1.0  0.86650  0.31289  0.66262  1.0000
  O   O26       1.0  0.65329  0.28245  0.49546  1.0000
  O   O27       1.0  0.88695  0.29117  0.31914  1.0000
  H   H33       1.0  0.55052  0.45911  0.60690  1.0000
  H   H34       1.0  0.56842  0.37580  0.59349  1.0000
  H   H35       1.0  0.97063  0.38582  0.39061  1.0000
  H   H36       1.0  0.96025  0.46918  0.39583  1.0000
  C   C55       1.0  0.72947  0.62475  0.52825  1.0000
  C   C56       1.0  0.62082  0.59751  0.57542  1.0000
  C   C57       1.0  0.62831  0.54920  0.56748  1.0000
  C   C58       1.0  0.74626  0.52625  0.50586  1.0000
  C   C59       1.0  0.85595  0.55481  0.45026  1.0000
  C   C60       1.0  0.84720  0.60332  0.46045  1.0000
  P   P10       1.0  0.71139  0.68682  0.49561  1.0000
  O   O28       1.0  0.63350  0.68711  0.33738  1.0000
  O   O29       1.0  0.84671  0.71755  0.50454  1.0000
  O   O30       1.0  0.61306  0.70883  0.68086  1.0000
  H   H37       1.0  0.94948  0.54089  0.39310  1.0000
  H   H38       1.0  0.93159  0.62420  0.40651  1.0000
  H   H39       1.0  0.52937  0.61418  0.60939  1.0000
  H   H40       1.0  0.53975  0.53082  0.60417  1.0000
  C   C61       1.0  0.52053  0.87525  0.47175  1.0000
  C   C62       1.0  0.62918  0.90249  0.42458  1.0000
  C   C63       1.0  0.62169  0.95080  0.43252  1.0000
  C   C64       1.0  0.50374  0.97375  0.49414  1.0000
  C   C65       1.0  0.89406  0.94519  0.54974  1.0000
  C   C66       1.0  0.90280  0.89668  0.53955  1.0000
  P   P11       1.0  0.53861  0.81318  0.50439  1.0000
  O   O31       1.0  0.61650  0.81289  0.66262  1.0000
  O   O32       1.0  0.90330  0.78245  0.49546  1.0000
  O   O33       1.0  0.63695  0.79117  0.31914  1.0000
  H   H41       1.0  0.80052  0.95911  0.60690  1.0000
  H   H42       1.0  0.81841  0.87580  0.59349  1.0000
  H   H43       1.0  0.72063  0.88582  0.39061  1.0000
  H   H44       1.0  0.71025  0.96918  0.39583  1.0000
  C   C67       1.0  0.97947  0.12475  0.52825  1.0000
  C   C68       1.0  0.87082  0.09751  0.57542  1.0000
  C   C69       1.0  0.87830  0.04920  0.56748  1.0000
  C   C70       1.0  0.99626  0.02625  0.50586  1.0000
  C   C71       1.0  0.60595  0.05481  0.45026  1.0000
  C   C72       1.0  0.59720  0.10332  0.46045  1.0000
  P   P12       1.0  0.96140  0.18682  0.49561  1.0000
  O   O34       1.0  0.88350  0.18711  0.33738  1.0000
  O   O35       1.0  0.59671  0.21755  0.50454  1.0000
  O   O36       1.0  0.86306  0.20883  0.68086  1.0000
  H   H45       1.0  0.69949  0.04089  0.39310  1.0000
  H   H46       1.0  0.68158  0.12420  0.40651  1.0000
  H   H47       1.0  0.77937  0.11418  0.60939  1.0000
  H   H48       1.0  0.78975  0.03082  0.60417  1.0000
  C   C73       1.0  0.72947  0.37525  0.02825  1.0000
  C   C74       1.0  0.62082  0.40249  0.07542  1.0000
  C   C75       1.0  0.62831  0.45080  0.06748  1.0000
  C   C76       1.0  0.74626  0.47375  0.00586  1.0000
  C   C77       1.0  0.85595  0.44519  0.95026  1.0000
  C   C78       1.0  0.84720  0.39668  0.96045  1.0000
  P   P13       1.0  0.71139  0.31318  0.99561  1.0000
  O   O37       1.0  0.63350  0.31289  0.83738  1.0000
  O   O38       1.0  0.84670  0.28245  0.00454  1.0000
  O   O39       1.0  0.61306  0.29117  0.18086  1.0000
  H   H49       1.0  0.94948  0.45911  0.89310  1.0000
  H   H50       1.0  0.93159  0.37580  0.90651  1.0000
  H   H51       1.0  0.52937  0.38582  0.10939  1.0000
  H   H52       1.0  0.53975  0.46918  0.10417  1.0000
  C   C79       1.0  0.77054  0.62475  0.97175  1.0000
  C   C80       1.0  0.87918  0.59751  0.92458  1.0000
  C   C81       1.0  0.87170  0.54920  0.93252  1.0000
  C   C82       1.0  0.75374  0.52625  0.99414  1.0000
  C   C83       1.0  0.64406  0.55481  0.04974  1.0000
  C   C84       1.0  0.65279  0.60332  0.03955  1.0000
  P   P14       1.0  0.78861  0.68682  0.00439  1.0000
  O   O40       1.0  0.86650  0.68711  0.16262  1.0000
  O   O41       1.0  0.65329  0.71755  0.99546  1.0000
  O   O42       1.0  0.88694  0.70883  0.81914  1.0000
  H   H53       1.0  0.55052  0.54089  0.10690  1.0000
  H   H54       1.0  0.56842  0.62420  0.09349  1.0000
  H   H55       1.0  0.97063  0.61418  0.89061  1.0000
  H   H56       1.0  0.96025  0.53082  0.89583  1.0000
  C   C85       1.0  0.97946  0.87525  0.02825  1.0000
  C   C86       1.0  0.87082  0.90249  0.07542  1.0000
  C   C87       1.0  0.87831  0.95080  0.06748  1.0000
  C   C88       1.0  0.99626  0.97375  0.00586  1.0000
  C   C89       1.0  0.60595  0.94519  0.95026  1.0000
  C   C90       1.0  0.59720  0.89668  0.96045  1.0000
  P   P15       1.0  0.96139  0.81318  0.99561  1.0000
  O   O43       1.0  0.88350  0.81289  0.83738  1.0000
  O   O44       1.0  0.59670  0.78245  0.00454  1.0000
  O   O45       1.0  0.86306  0.79117  0.18086  1.0000
  H   H57       1.0  0.69949  0.95911  0.89310  1.0000
  H   H58       1.0  0.68158  0.87580  0.90651  1.0000
  H   H59       1.0  0.77937  0.88582  0.10939  1.0000
  H   H60       1.0  0.78975  0.96918  0.10417  1.0000
  C   C91       1.0  0.52053  0.12475  0.97175  1.0000
  C   C92       1.0  0.62918  0.09751  0.92458  1.0000
  C   C93       1.0  0.62170  0.04920  0.93252  1.0000
  C   C94       1.0  0.50374  0.02625  0.99414  1.0000
  C   C95       1.0  0.89406  0.05481  0.04974  1.0000
  C   C96       1.0  0.90280  0.10332  0.03955  1.0000
  P   P16       1.0  0.53861  0.18682  0.00439  1.0000
  O   O46       1.0  0.61650  0.18711  0.16262  1.0000
  O   O47       1.0  0.90329  0.21755  0.99546  1.0000
  O   O48       1.0  0.63695  0.20883  0.81914  1.0000
  H   H61       1.0  0.80052  0.04089  0.10690  1.0000
  H   H62       1.0  0.81842  0.12420  0.09349  1.0000
  H   H63       1.0  0.72063  0.11418  0.89061  1.0000
  H   H64       1.0  0.71025  0.03082  0.89583  1.0000
  Nd  Nd5       1.0  0.50000  0.26041  0.75000  1.0000
  Nd  Nd6       1.0  0.75000  0.76041  0.75000  1.0000
  Nd  Nd7       1.0  0.50000  0.73959  0.25000  1.0000
  Nd  Nd8       1.0  0.75000  0.23959  0.25000  1.0000
