data_image0
_chemical_formula_structural       C6PO3H4C6PO3H8C6PO3H4C6PO3C6PO3H4C6PO3H8C6PO3H4C6PO3Sm4C6PO3H4C6PO3H8C6PO3H4C6PO3C6PO3H4C6PO3H8C6PO3H4C6PO3Sm4
_chemical_formula_sum              "C96 P16 O48 H64 Sm8"
_cell_length_a       11.069
_cell_length_b       28.6932
_cell_length_c       8.2251
_cell_angle_alpha    90
_cell_angle_beta     71.0288
_cell_angle_gamma    90

_space_group_name_H-M_alt    "P 1"
_space_group_IT_number       1

loop_
  _space_group_symop_operation_xyz
  'x, y, z'

loop_
  _atom_site_type_symbol
  _atom_site_label
  _atom_site_symmetry_multiplicity
  _atom_site_fract_x
  _atom_site_fract_y
  _atom_site_fract_z
  _atom_site_occupancy
  C   C1        1.0  0.26841  0.37477  0.97244  1.0000
  C   C2        1.0  0.37785  0.40194  0.92440  1.0000
  C   C3        1.0  0.37114  0.45038  0.93221  1.0000
  C   C4        1.0  0.25319  0.47365  0.99428  1.0000
  C   C5        1.0  0.14257  0.44521  0.05064  1.0000
  C   C6        1.0  0.15053  0.39651  0.04115  1.0000
  P   P1        1.0  0.28726  0.31253  0.00607  1.0000
  O   O1        1.0  0.36979  0.31296  0.16123  1.0000
  O   O2        1.0  0.15336  0.28025  0.99689  1.0000
  O   O3        1.0  0.38548  0.29116  0.81795  1.0000
  H   H1        1.0  0.04890  0.45941  0.10770  1.0000
  H   H2        1.0  0.06558  0.37575  0.09606  1.0000
  H   H3        1.0  0.46947  0.38507  0.89054  1.0000
  H   H4        1.0  0.46032  0.46864  0.89526  1.0000
  C   C7        1.0  0.23159  0.62523  0.02756  1.0000
  C   C8        1.0  0.12215  0.59806  0.07560  1.0000
  C   C9        1.0  0.12885  0.54962  0.06779  1.0000
  C   C10       1.0  0.24680  0.52635  0.00572  1.0000
  C   C11       1.0  0.35743  0.55479  0.94936  1.0000
  C   C12       1.0  0.34946  0.60349  0.95885  1.0000
  P   P2        1.0  0.21273  0.68747  0.99393  1.0000
  O   O4        1.0  0.13021  0.68704  0.83877  1.0000
  O   O5        1.0  0.34664  0.71975  0.00311  1.0000
  O   O6        1.0  0.11451  0.70884  0.18205  1.0000
  H   H5        1.0  0.45110  0.54059  0.89230  1.0000
  H   H6        1.0  0.43441  0.62425  0.90394  1.0000
  H   H7        1.0  0.03053  0.61493  0.10946  1.0000
  H   H8        1.0  0.03968  0.53136  0.10474  1.0000
  H   H9        1.0  0.45110  0.45941  0.39230  1.0000
  H   H10       1.0  0.43441  0.37575  0.40394  1.0000
  H   H11       1.0  0.03053  0.38507  0.60946  1.0000
  H   H12       1.0  0.03968  0.46864  0.60474  1.0000
  C   C13       1.0  0.23159  0.37477  0.52756  1.0000
  C   C14       1.0  0.12214  0.40194  0.57560  1.0000
  C   C15       1.0  0.12885  0.45038  0.56779  1.0000
  C   C16       1.0  0.24680  0.47365  0.50572  1.0000
  C   C17       1.0  0.35743  0.44521  0.44936  1.0000
  C   C18       1.0  0.34946  0.39651  0.45885  1.0000
  P   P3        1.0  0.21274  0.31253  0.49393  1.0000
  O   O7        1.0  0.13021  0.31296  0.33877  1.0000
  O   O8        1.0  0.34664  0.28025  0.50311  1.0000
  O   O9        1.0  0.11451  0.29116  0.68205  1.0000
  H   H13       1.0  0.04889  0.54059  0.60770  1.0000
  H   H14       1.0  0.06558  0.62425  0.59606  1.0000
  H   H15       1.0  0.46947  0.61493  0.39054  1.0000
  H   H16       1.0  0.46032  0.53136  0.39526  1.0000
  C   C19       1.0  0.26841  0.62523  0.47244  1.0000
  C   C20       1.0  0.37785  0.59806  0.42440  1.0000
  C   C21       1.0  0.37114  0.54962  0.43221  1.0000
  C   C22       1.0  0.25319  0.52635  0.49428  1.0000
  C   C23       1.0  0.14257  0.55479  0.55064  1.0000
  C   C24       1.0  0.15053  0.60349  0.54115  1.0000
  P   P4        1.0  0.28726  0.68747  0.50607  1.0000
  O   O10       1.0  0.36979  0.68704  0.66123  1.0000
  O   O11       1.0  0.15336  0.71975  0.49689  1.0000
  O   O12       1.0  0.38548  0.70884  0.31795  1.0000
  C   C25       1.0  0.01841  0.87477  0.97244  1.0000
  C   C26       1.0  0.12785  0.90194  0.92440  1.0000
  C   C27       1.0  0.12114  0.95038  0.93221  1.0000
  C   C28       1.0  0.00319  0.97365  0.99428  1.0000
  C   C29       1.0  0.39257  0.94521  0.05064  1.0000
  C   C30       1.0  0.40053  0.89651  0.04115  1.0000
  P   P5        1.0  0.03726  0.81253  0.00607  1.0000
  O   O13       1.0  0.11979  0.81296  0.16123  1.0000
  O   O14       1.0  0.40336  0.78025  0.99689  1.0000
  O   O15       1.0  0.13549  0.79116  0.81795  1.0000
  H   H17       1.0  0.29890  0.95941  0.10770  1.0000
  H   H18       1.0  0.31559  0.87575  0.09606  1.0000
  H   H19       1.0  0.21947  0.88507  0.89054  1.0000
  H   H20       1.0  0.21032  0.96864  0.89526  1.0000
  C   C31       1.0  0.48159  0.12523  0.02756  1.0000
  C   C32       1.0  0.37214  0.09806  0.07560  1.0000
  C   C33       1.0  0.37885  0.04962  0.06779  1.0000
  C   C34       1.0  0.49680  0.02635  0.00572  1.0000
  C   C35       1.0  0.10743  0.05479  0.94936  1.0000
  C   C36       1.0  0.09946  0.10349  0.95885  1.0000
  P   P6        1.0  0.46273  0.18747  0.99393  1.0000
  O   O16       1.0  0.38021  0.18704  0.83877  1.0000
  O   O17       1.0  0.09664  0.21975  0.00311  1.0000
  O   O18       1.0  0.36451  0.20884  0.18205  1.0000
  H   H21       1.0  0.20110  0.04059  0.89230  1.0000
  H   H22       1.0  0.18442  0.12425  0.90394  1.0000
  H   H23       1.0  0.28053  0.11493  0.10946  1.0000
  H   H24       1.0  0.28968  0.03136  0.10474  1.0000
  H   H25       1.0  0.20110  0.95941  0.39230  1.0000
  H   H26       1.0  0.18441  0.87575  0.40394  1.0000
  H   H27       1.0  0.28053  0.88507  0.60946  1.0000
  H   H28       1.0  0.28968  0.96864  0.60474  1.0000
  C   C37       1.0  0.48159  0.87477  0.52756  1.0000
  C   C38       1.0  0.37214  0.90194  0.57560  1.0000
  C   C39       1.0  0.37885  0.95038  0.56779  1.0000
  C   C40       1.0  0.49680  0.97365  0.50572  1.0000
  C   C41       1.0  0.10743  0.94521  0.44936  1.0000
  C   C42       1.0  0.09946  0.89651  0.45885  1.0000
  P   P7        1.0  0.46274  0.81253  0.49393  1.0000
  O   O19       1.0  0.38021  0.81296  0.33877  1.0000
  O   O20       1.0  0.09664  0.78025  0.50311  1.0000
  O   O21       1.0  0.36451  0.79116  0.68205  1.0000
  H   H29       1.0  0.29890  0.04059  0.60770  1.0000
  H   H30       1.0  0.31559  0.12425  0.59606  1.0000
  H   H31       1.0  0.21947  0.11493  0.39054  1.0000
  H   H32       1.0  0.21032  0.03136  0.39526  1.0000
  C   C43       1.0  0.01841  0.12523  0.47244  1.0000
  C   C44       1.0  0.12785  0.09806  0.42440  1.0000
  C   C45       1.0  0.12115  0.04962  0.43221  1.0000
  C   C46       1.0  0.00319  0.02635  0.49428  1.0000
  C   C47       1.0  0.39257  0.05479  0.55064  1.0000
  C   C48       1.0  0.40053  0.10349  0.54115  1.0000
  P   P8        1.0  0.03726  0.18747  0.50607  1.0000
  O   O22       1.0  0.11979  0.18704  0.66123  1.0000
  O   O23       1.0  0.40336  0.21975  0.49689  1.0000
  O   O24       1.0  0.13548  0.20884  0.31795  1.0000
  Sm  Sm1       1.0  0.00000  0.26042  0.25000  1.0000
  Sm  Sm2       1.0  0.25000  0.76042  0.25000  1.0000
  Sm  Sm3       1.0  0.00000  0.73958  0.75000  1.0000
  Sm  Sm4       1.0  0.25000  0.23958  0.75000  1.0000
  C   C49       1.0  0.76841  0.37477  0.97244  1.0000
  C   C50       1.0  0.87786  0.40194  0.92440  1.0000
  C   C51       1.0  0.87114  0.45038  0.93221  1.0000
  C   C52       1.0  0.75319  0.47365  0.99428  1.0000
  C   C53       1.0  0.64257  0.44521  0.05064  1.0000
  C   C54       1.0  0.65053  0.39651  0.04115  1.0000
  P   P9        1.0  0.78727  0.31253  0.00607  1.0000
  O   O25       1.0  0.86979  0.31296  0.16123  1.0000
  O   O26       1.0  0.65336  0.28025  0.99689  1.0000
  O   O27       1.0  0.88548  0.29116  0.81795  1.0000
  H   H33       1.0  0.54890  0.45941  0.10770  1.0000
  H   H34       1.0  0.56558  0.37575  0.09606  1.0000
  H   H35       1.0  0.96947  0.38507  0.89054  1.0000
  H   H36       1.0  0.96032  0.46864  0.89526  1.0000
  C   C55       1.0  0.73159  0.62523  0.02756  1.0000
  C   C56       1.0  0.62214  0.59806  0.07560  1.0000
  C   C57       1.0  0.62885  0.54962  0.06779  1.0000
  C   C58       1.0  0.74681  0.52635  0.00572  1.0000
  C   C59       1.0  0.85743  0.55479  0.94936  1.0000
  C   C60       1.0  0.84946  0.60349  0.95885  1.0000
  P   P10       1.0  0.71273  0.68747  0.99393  1.0000
  O   O28       1.0  0.63021  0.68704  0.83877  1.0000
  O   O29       1.0  0.84664  0.71975  0.00311  1.0000
  O   O30       1.0  0.61452  0.70884  0.18205  1.0000
  H   H37       1.0  0.95110  0.54059  0.89230  1.0000
  H   H38       1.0  0.93442  0.62425  0.90394  1.0000
  H   H39       1.0  0.53053  0.61493  0.10946  1.0000
  H   H40       1.0  0.53968  0.53136  0.10474  1.0000
  H   H41       1.0  0.95110  0.45941  0.39230  1.0000
  H   H42       1.0  0.93441  0.37575  0.40394  1.0000
  H   H43       1.0  0.53053  0.38507  0.60946  1.0000
  H   H44       1.0  0.53968  0.46864  0.60474  1.0000
  C   C61       1.0  0.73159  0.37477  0.52756  1.0000
  C   C62       1.0  0.62214  0.40194  0.57560  1.0000
  C   C63       1.0  0.62886  0.45038  0.56779  1.0000
  C   C64       1.0  0.74680  0.47365  0.50572  1.0000
  C   C65       1.0  0.85743  0.44521  0.44936  1.0000
  C   C66       1.0  0.84947  0.39651  0.45885  1.0000
  P   P11       1.0  0.71274  0.31253  0.49393  1.0000
  O   O31       1.0  0.63021  0.31296  0.33877  1.0000
  O   O32       1.0  0.84664  0.28025  0.50311  1.0000
  O   O33       1.0  0.61451  0.29116  0.68205  1.0000
  H   H45       1.0  0.54890  0.54059  0.60770  1.0000
  H   H46       1.0  0.56558  0.62425  0.59606  1.0000
  H   H47       1.0  0.96947  0.61493  0.39054  1.0000
  H   H48       1.0  0.96032  0.53136  0.39526  1.0000
  C   C67       1.0  0.76841  0.62523  0.47244  1.0000
  C   C68       1.0  0.87785  0.59806  0.42440  1.0000
  C   C69       1.0  0.87114  0.54962  0.43221  1.0000
  C   C70       1.0  0.75319  0.52635  0.49428  1.0000
  C   C71       1.0  0.64257  0.55479  0.55064  1.0000
  C   C72       1.0  0.65053  0.60349  0.54115  1.0000
  P   P12       1.0  0.78726  0.68747  0.50607  1.0000
  O   O34       1.0  0.86979  0.68704  0.66123  1.0000
  O   O35       1.0  0.65336  0.71975  0.49689  1.0000
  O   O36       1.0  0.88548  0.70884  0.31795  1.0000
  C   C73       1.0  0.51841  0.87477  0.97244  1.0000
  C   C74       1.0  0.62785  0.90194  0.92440  1.0000
  C   C75       1.0  0.62114  0.95038  0.93221  1.0000
  C   C76       1.0  0.50319  0.97365  0.99428  1.0000
  C   C77       1.0  0.89257  0.94521  0.05064  1.0000
  C   C78       1.0  0.90053  0.89651  0.04115  1.0000
  P   P13       1.0  0.53726  0.81253  0.00607  1.0000
  O   O37       1.0  0.61979  0.81296  0.16123  1.0000
  O   O38       1.0  0.90336  0.78025  0.99689  1.0000
  O   O39       1.0  0.63548  0.79116  0.81795  1.0000
  H   H49       1.0  0.79890  0.95941  0.10770  1.0000
  H   H50       1.0  0.81559  0.87575  0.09606  1.0000
  H   H51       1.0  0.71947  0.88507  0.89054  1.0000
  H   H52       1.0  0.71032  0.96864  0.89526  1.0000
  C   C79       1.0  0.98159  0.12523  0.02756  1.0000
  C   C80       1.0  0.87215  0.09806  0.07560  1.0000
  C   C81       1.0  0.87885  0.04962  0.06779  1.0000
  C   C82       1.0  0.99680  0.02635  0.00572  1.0000
  C   C83       1.0  0.60743  0.05479  0.94936  1.0000
  C   C84       1.0  0.59946  0.10349  0.95885  1.0000
  P   P14       1.0  0.96273  0.18747  0.99393  1.0000
  O   O40       1.0  0.88021  0.18704  0.83877  1.0000
  O   O41       1.0  0.59664  0.21975  0.00311  1.0000
  O   O42       1.0  0.86451  0.20884  0.18205  1.0000
  H   H53       1.0  0.70110  0.04059  0.89230  1.0000
  H   H54       1.0  0.68441  0.12425  0.90394  1.0000
  H   H55       1.0  0.78053  0.11493  0.10946  1.0000
  H   H56       1.0  0.78968  0.03136  0.10474  1.0000
  H   H57       1.0  0.70110  0.95941  0.39230  1.0000
  H   H58       1.0  0.68441  0.87575  0.40394  1.0000
  H   H59       1.0  0.78053  0.88507  0.60946  1.0000
  H   H60       1.0  0.78968  0.96864  0.60474  1.0000
  C   C85       1.0  0.98159  0.87477  0.52756  1.0000
  C   C86       1.0  0.87215  0.90194  0.57560  1.0000
  C   C87       1.0  0.87885  0.95038  0.56779  1.0000
  C   C88       1.0  0.99680  0.97365  0.50572  1.0000
  C   C89       1.0  0.60743  0.94521  0.44936  1.0000
  C   C90       1.0  0.59947  0.89651  0.45885  1.0000
  P   P15       1.0  0.96273  0.81253  0.49393  1.0000
  O   O43       1.0  0.88021  0.81296  0.33877  1.0000
  O   O44       1.0  0.59664  0.78025  0.50311  1.0000
  O   O45       1.0  0.86451  0.79116  0.68205  1.0000
  H   H61       1.0  0.79890  0.04059  0.60770  1.0000
  H   H62       1.0  0.81559  0.12425  0.59606  1.0000
  H   H63       1.0  0.71947  0.11493  0.39054  1.0000
  H   H64       1.0  0.71032  0.03136  0.39526  1.0000
  C   C91       1.0  0.51841  0.12523  0.47244  1.0000
  C   C92       1.0  0.62785  0.09806  0.42440  1.0000
  C   C93       1.0  0.62114  0.04962  0.43221  1.0000
  C   C94       1.0  0.50319  0.02635  0.49428  1.0000
  C   C95       1.0  0.89257  0.05479  0.55064  1.0000
  C   C96       1.0  0.90053  0.10349  0.54115  1.0000
  P   P16       1.0  0.53726  0.18747  0.50607  1.0000
  O   O46       1.0  0.61979  0.18704  0.66123  1.0000
  O   O47       1.0  0.90336  0.21975  0.49689  1.0000
  O   O48       1.0  0.63548  0.20884  0.31795  1.0000
  Sm  Sm5       1.0  0.50000  0.26042  0.25000  1.0000
  Sm  Sm6       1.0  0.75000  0.76042  0.25000  1.0000
  Sm  Sm7       1.0  0.50000  0.73958  0.75000  1.0000
  Sm  Sm8       1.0  0.75000  0.23958  0.75000  1.0000
