data_image0
_chemical_formula_structural       C6PO3H4C6PO3H4C6PO3H4C6PO3H4C6PO3H4C6PO3H4C6PO3H4C6PO3H4Gd4C6PO3H4C6PO3H4C6PO3H4C6PO3H4C6PO3H4C6PO3H4C6PO3H4C6PO3H4Gd4
_chemical_formula_sum              "C96 P16 O48 H64 Gd8"
_cell_length_a       10.9884
_cell_length_b       28.6622
_cell_length_c       8.1723
_cell_angle_alpha    90
_cell_angle_beta     71.165
_cell_angle_gamma    90

_space_group_name_H-M_alt    "P 1"
_space_group_IT_number       1

loop_
  _space_group_symop_operation_xyz
  'x, y, z'

loop_
  _atom_site_type_symbol
  _atom_site_label
  _atom_site_symmetry_multiplicity
  _atom_site_fract_x
  _atom_site_fract_y
  _atom_site_fract_z
  _atom_site_occupancy
  C   C1        1.0  0.26636  0.37449  0.47302  1.0000
  C   C2        1.0  0.37675  0.40155  0.42400  1.0000
  C   C3        1.0  0.37079  0.45005  0.43164  1.0000
  C   C4        1.0  0.25269  0.47360  0.49436  1.0000
  C   C5        1.0  0.14103  0.44531  0.55164  1.0000
  C   C6        1.0  0.14825  0.39650  0.54279  1.0000
  P   P1        1.0  0.28596  0.31221  0.50755  1.0000
  O   O1        1.0  0.37252  0.31314  0.65991  1.0000
  O   O2        1.0  0.15338  0.27845  0.49828  1.0000
  O   O3        1.0  0.38447  0.29141  0.31749  1.0000
  H   H1        1.0  0.04714  0.45976  0.60873  1.0000
  H   H2        1.0  0.06269  0.37587  0.59869  1.0000
  H   H3        1.0  0.46864  0.38448  0.39021  1.0000
  H   H4        1.0  0.46067  0.46819  0.39437  1.0000
  C   C7        1.0  0.23364  0.62551  0.52698  1.0000
  C   C8        1.0  0.12325  0.59845  0.57600  1.0000
  C   C9        1.0  0.12921  0.54995  0.56836  1.0000
  C   C10       1.0  0.24731  0.52640  0.50564  1.0000
  C   C11       1.0  0.35897  0.55469  0.44836  1.0000
  C   C12       1.0  0.35175  0.60350  0.45721  1.0000
  P   P2        1.0  0.21405  0.68779  0.49245  1.0000
  O   O4        1.0  0.12748  0.68686  0.34009  1.0000
  O   O5        1.0  0.34662  0.72155  0.50172  1.0000
  O   O6        1.0  0.11554  0.70859  0.68251  1.0000
  H   H5        1.0  0.45287  0.54024  0.39127  1.0000
  H   H6        1.0  0.43731  0.62413  0.40131  1.0000
  H   H7        1.0  0.03136  0.61552  0.60979  1.0000
  H   H8        1.0  0.03932  0.53181  0.60563  1.0000
  C   C13       1.0  0.01636  0.87449  0.47302  1.0000
  C   C14       1.0  0.12675  0.90155  0.42400  1.0000
  C   C15       1.0  0.12079  0.95005  0.43164  1.0000
  C   C16       1.0  0.00269  0.97360  0.49436  1.0000
  C   C17       1.0  0.39102  0.94531  0.55164  1.0000
  C   C18       1.0  0.39825  0.89650  0.54279  1.0000
  P   P3        1.0  0.03596  0.81221  0.50755  1.0000
  O   O7        1.0  0.12252  0.81314  0.65991  1.0000
  O   O8        1.0  0.40338  0.77845  0.49828  1.0000
  O   O9        1.0  0.13447  0.79141  0.31749  1.0000
  H   H9        1.0  0.29713  0.95976  0.60873  1.0000
  H   H10       1.0  0.31269  0.87587  0.59869  1.0000
  H   H11       1.0  0.21865  0.88448  0.39021  1.0000
  H   H12       1.0  0.21068  0.96819  0.39437  1.0000
  C   C19       1.0  0.48364  0.12551  0.52698  1.0000
  C   C20       1.0  0.37325  0.09845  0.57600  1.0000
  C   C21       1.0  0.37921  0.04995  0.56836  1.0000
  C   C22       1.0  0.49732  0.02640  0.50564  1.0000
  C   C23       1.0  0.10898  0.05469  0.44836  1.0000
  C   C24       1.0  0.10175  0.10350  0.45721  1.0000
  P   P4        1.0  0.46404  0.18779  0.49245  1.0000
  O   O10       1.0  0.37748  0.18686  0.34009  1.0000
  O   O11       1.0  0.09662  0.22155  0.50172  1.0000
  O   O12       1.0  0.36554  0.20859  0.68251  1.0000
  H   H13       1.0  0.20286  0.04024  0.39127  1.0000
  H   H14       1.0  0.18731  0.12413  0.40131  1.0000
  H   H15       1.0  0.28136  0.11552  0.60979  1.0000
  H   H16       1.0  0.28932  0.03181  0.60563  1.0000
  C   C25       1.0  0.23364  0.37449  0.02698  1.0000
  C   C26       1.0  0.12325  0.40155  0.07600  1.0000
  C   C27       1.0  0.12920  0.45005  0.06836  1.0000
  C   C28       1.0  0.24731  0.47360  0.00564  1.0000
  C   C29       1.0  0.35898  0.44531  0.94836  1.0000
  C   C30       1.0  0.35175  0.39650  0.95721  1.0000
  P   P5        1.0  0.21404  0.31221  0.99245  1.0000
  O   O13       1.0  0.12748  0.31314  0.84009  1.0000
  O   O14       1.0  0.34662  0.27845  0.00172  1.0000
  O   O15       1.0  0.11554  0.29141  0.18251  1.0000
  H   H17       1.0  0.45287  0.45976  0.89127  1.0000
  H   H18       1.0  0.43731  0.37587  0.90131  1.0000
  H   H19       1.0  0.03136  0.38448  0.10979  1.0000
  H   H20       1.0  0.03932  0.46819  0.10563  1.0000
  C   C31       1.0  0.26636  0.62551  0.97302  1.0000
  C   C32       1.0  0.37675  0.59845  0.92400  1.0000
  C   C33       1.0  0.37079  0.54995  0.93164  1.0000
  C   C34       1.0  0.25269  0.52640  0.99436  1.0000
  C   C35       1.0  0.14103  0.55469  0.05164  1.0000
  C   C36       1.0  0.14825  0.60350  0.04279  1.0000
  P   P6        1.0  0.28596  0.68779  0.00755  1.0000
  O   O16       1.0  0.37252  0.68686  0.15991  1.0000
  O   O17       1.0  0.15339  0.72155  0.99828  1.0000
  O   O18       1.0  0.38446  0.70859  0.81749  1.0000
  H   H21       1.0  0.04714  0.54024  0.10873  1.0000
  H   H22       1.0  0.06269  0.62413  0.09869  1.0000
  H   H23       1.0  0.46864  0.61552  0.89021  1.0000
  H   H24       1.0  0.46068  0.53181  0.89437  1.0000
  C   C37       1.0  0.48364  0.87449  0.02698  1.0000
  C   C38       1.0  0.37325  0.90155  0.07600  1.0000
  C   C39       1.0  0.37921  0.95005  0.06836  1.0000
  C   C40       1.0  0.49732  0.97360  0.00564  1.0000
  C   C41       1.0  0.10898  0.94531  0.94836  1.0000
  C   C42       1.0  0.10175  0.89650  0.95721  1.0000
  P   P7        1.0  0.46404  0.81221  0.99245  1.0000
  O   O19       1.0  0.37748  0.81314  0.84009  1.0000
  O   O20       1.0  0.09662  0.77845  0.00172  1.0000
  O   O21       1.0  0.36553  0.79141  0.18251  1.0000
  H   H25       1.0  0.20286  0.95976  0.89127  1.0000
  H   H26       1.0  0.18731  0.87587  0.90131  1.0000
  H   H27       1.0  0.28136  0.88448  0.10979  1.0000
  H   H28       1.0  0.28932  0.96819  0.10563  1.0000
  C   C43       1.0  0.01636  0.12551  0.97302  1.0000
  C   C44       1.0  0.12675  0.09845  0.92400  1.0000
  C   C45       1.0  0.12080  0.04995  0.93164  1.0000
  C   C46       1.0  0.00269  0.02640  0.99436  1.0000
  C   C47       1.0  0.39102  0.05469  0.05164  1.0000
  C   C48       1.0  0.39825  0.10350  0.04279  1.0000
  P   P8        1.0  0.03596  0.18779  0.00755  1.0000
  O   O22       1.0  0.12252  0.18686  0.15991  1.0000
  O   O23       1.0  0.40339  0.22155  0.99828  1.0000
  O   O24       1.0  0.13446  0.20859  0.81749  1.0000
  H   H29       1.0  0.29713  0.04024  0.10873  1.0000
  H   H30       1.0  0.31269  0.12413  0.09869  1.0000
  H   H31       1.0  0.21865  0.11552  0.89021  1.0000
  H   H32       1.0  0.21068  0.03181  0.89437  1.0000
  Gd  Gd1       1.0  0.00000  0.26032  0.75000  1.0000
  Gd  Gd2       1.0  0.25000  0.76032  0.75000  1.0000
  Gd  Gd3       1.0  0.00000  0.73968  0.25000  1.0000
  Gd  Gd4       1.0  0.25000  0.23968  0.25000  1.0000
  C   C49       1.0  0.76636  0.37449  0.47302  1.0000
  C   C50       1.0  0.87675  0.40155  0.42400  1.0000
  C   C51       1.0  0.87079  0.45005  0.43164  1.0000
  C   C52       1.0  0.75269  0.47360  0.49436  1.0000
  C   C53       1.0  0.64102  0.44531  0.55164  1.0000
  C   C54       1.0  0.64826  0.39650  0.54279  1.0000
  P   P9        1.0  0.78596  0.31221  0.50755  1.0000
  O   O25       1.0  0.87252  0.31314  0.65991  1.0000
  O   O26       1.0  0.65338  0.27845  0.49828  1.0000
  O   O27       1.0  0.88447  0.29141  0.31749  1.0000
  H   H33       1.0  0.54713  0.45976  0.60873  1.0000
  H   H34       1.0  0.56269  0.37587  0.59869  1.0000
  H   H35       1.0  0.96864  0.38448  0.39021  1.0000
  H   H36       1.0  0.96067  0.46819  0.39437  1.0000
  C   C55       1.0  0.73364  0.62551  0.52698  1.0000
  C   C56       1.0  0.62325  0.59845  0.57600  1.0000
  C   C57       1.0  0.62920  0.54995  0.56836  1.0000
  C   C58       1.0  0.74731  0.52640  0.50564  1.0000
  C   C59       1.0  0.85897  0.55469  0.44836  1.0000
  C   C60       1.0  0.85174  0.60350  0.45721  1.0000
  P   P10       1.0  0.71404  0.68779  0.49245  1.0000
  O   O28       1.0  0.62748  0.68686  0.34009  1.0000
  O   O29       1.0  0.84662  0.72155  0.50172  1.0000
  O   O30       1.0  0.61553  0.70859  0.68251  1.0000
  H   H37       1.0  0.95286  0.54024  0.39127  1.0000
  H   H38       1.0  0.93731  0.62413  0.40131  1.0000
  H   H39       1.0  0.53136  0.61552  0.60979  1.0000
  H   H40       1.0  0.53932  0.53181  0.60563  1.0000
  C   C61       1.0  0.51636  0.87449  0.47302  1.0000
  C   C62       1.0  0.62675  0.90155  0.42400  1.0000
  C   C63       1.0  0.62079  0.95005  0.43164  1.0000
  C   C64       1.0  0.50269  0.97360  0.49436  1.0000
  C   C65       1.0  0.89102  0.94531  0.55164  1.0000
  C   C66       1.0  0.89826  0.89650  0.54279  1.0000
  P   P11       1.0  0.53596  0.81221  0.50755  1.0000
  O   O31       1.0  0.62252  0.81314  0.65991  1.0000
  O   O32       1.0  0.90338  0.77845  0.49828  1.0000
  O   O33       1.0  0.63447  0.79141  0.31749  1.0000
  H   H41       1.0  0.79713  0.95976  0.60873  1.0000
  H   H42       1.0  0.81269  0.87587  0.59869  1.0000
  H   H43       1.0  0.71865  0.88448  0.39021  1.0000
  H   H44       1.0  0.71068  0.96819  0.39437  1.0000
  C   C67       1.0  0.98364  0.12551  0.52698  1.0000
  C   C68       1.0  0.87325  0.09845  0.57600  1.0000
  C   C69       1.0  0.87921  0.04995  0.56836  1.0000
  C   C70       1.0  0.99731  0.02640  0.50564  1.0000
  C   C71       1.0  0.60897  0.05469  0.44836  1.0000
  C   C72       1.0  0.60175  0.10350  0.45721  1.0000
  P   P12       1.0  0.96404  0.18779  0.49245  1.0000
  O   O34       1.0  0.87748  0.18686  0.34009  1.0000
  O   O35       1.0  0.59662  0.22155  0.50172  1.0000
  O   O36       1.0  0.86554  0.20859  0.68251  1.0000
  H   H45       1.0  0.70286  0.04024  0.39127  1.0000
  H   H46       1.0  0.68731  0.12413  0.40131  1.0000
  H   H47       1.0  0.78136  0.11552  0.60979  1.0000
  H   H48       1.0  0.78933  0.03181  0.60563  1.0000
  C   C73       1.0  0.73364  0.37449  0.02698  1.0000
  C   C74       1.0  0.62325  0.40155  0.07600  1.0000
  C   C75       1.0  0.62921  0.45005  0.06836  1.0000
  C   C76       1.0  0.74732  0.47360  0.00564  1.0000
  C   C77       1.0  0.85898  0.44531  0.94836  1.0000
  C   C78       1.0  0.85174  0.39650  0.95721  1.0000
  P   P13       1.0  0.71405  0.31221  0.99245  1.0000
  O   O37       1.0  0.62748  0.31314  0.84009  1.0000
  O   O38       1.0  0.84662  0.27845  0.00172  1.0000
  O   O39       1.0  0.61553  0.29141  0.18251  1.0000
  H   H49       1.0  0.95286  0.45976  0.89127  1.0000
  H   H50       1.0  0.93731  0.37587  0.90131  1.0000
  H   H51       1.0  0.53136  0.38448  0.10979  1.0000
  H   H52       1.0  0.53932  0.46819  0.10563  1.0000
  C   C79       1.0  0.76636  0.62551  0.97302  1.0000
  C   C80       1.0  0.87675  0.59845  0.92400  1.0000
  C   C81       1.0  0.87079  0.54995  0.93164  1.0000
  C   C82       1.0  0.75269  0.52640  0.99436  1.0000
  C   C83       1.0  0.64102  0.55469  0.05164  1.0000
  C   C84       1.0  0.64826  0.60350  0.04279  1.0000
  P   P14       1.0  0.78595  0.68779  0.00755  1.0000
  O   O40       1.0  0.87252  0.68686  0.15991  1.0000
  O   O41       1.0  0.65338  0.72155  0.99828  1.0000
  O   O42       1.0  0.88446  0.70859  0.81749  1.0000
  H   H53       1.0  0.54713  0.54024  0.10873  1.0000
  H   H54       1.0  0.56269  0.62413  0.09869  1.0000
  H   H55       1.0  0.96864  0.61552  0.89021  1.0000
  H   H56       1.0  0.96067  0.53181  0.89437  1.0000
  C   C85       1.0  0.98364  0.87449  0.02698  1.0000
  C   C86       1.0  0.87325  0.90155  0.07600  1.0000
  C   C87       1.0  0.87921  0.95005  0.06836  1.0000
  C   C88       1.0  0.99732  0.97360  0.00564  1.0000
  C   C89       1.0  0.60898  0.94531  0.94836  1.0000
  C   C90       1.0  0.60174  0.89650  0.95721  1.0000
  P   P15       1.0  0.96404  0.81221  0.99245  1.0000
  O   O43       1.0  0.87748  0.81314  0.84009  1.0000
  O   O44       1.0  0.59662  0.77845  0.00172  1.0000
  O   O45       1.0  0.86554  0.79141  0.18251  1.0000
  H   H57       1.0  0.70286  0.95976  0.89127  1.0000
  H   H58       1.0  0.68731  0.87587  0.90131  1.0000
  H   H59       1.0  0.78136  0.88448  0.10979  1.0000
  H   H60       1.0  0.78932  0.96819  0.10563  1.0000
  C   C91       1.0  0.51636  0.12551  0.97302  1.0000
  C   C92       1.0  0.62675  0.09845  0.92400  1.0000
  C   C93       1.0  0.62079  0.04995  0.93164  1.0000
  C   C94       1.0  0.50269  0.02640  0.99436  1.0000
  C   C95       1.0  0.89102  0.05469  0.05164  1.0000
  C   C96       1.0  0.89825  0.10350  0.04279  1.0000
  P   P16       1.0  0.53595  0.18779  0.00755  1.0000
  O   O46       1.0  0.62252  0.18686  0.15991  1.0000
  O   O47       1.0  0.90339  0.22155  0.99828  1.0000
  O   O48       1.0  0.63446  0.20859  0.81749  1.0000
  H   H61       1.0  0.79713  0.04024  0.10873  1.0000
  H   H62       1.0  0.81269  0.12413  0.09869  1.0000
  H   H63       1.0  0.71865  0.11552  0.89021  1.0000
  H   H64       1.0  0.71068  0.03181  0.89437  1.0000
  Gd  Gd5       1.0  0.50000  0.26032  0.75000  1.0000
  Gd  Gd6       1.0  0.75000  0.76032  0.75000  1.0000
  Gd  Gd7       1.0  0.50000  0.73968  0.25000  1.0000
  Gd  Gd8       1.0  0.75000  0.23968  0.25000  1.0000
