data_image0
_chemical_formula_structural       C2O4C2O4C2O4C2O4CO4C2O4C2O4C3O8C2O4C2O4C2O4C2O2C2O6C2O3C2O3C2O3C2O5C2O4C2O3C2O3C2O4C2O4C2O5C2O3C2O4C2O4C2O4C2O4CO4C3O4C2O4C2O4Li2ZrLi2ZrLi2Zr2Li2ZrLi2ZrLi2ZrLi2ZrLi2
_chemical_formula_sum              "C64 O128 Li16 Zr8"
_cell_length_a       16.1265
_cell_length_b       16.6649
_cell_length_c       15.4756
_cell_angle_alpha    90
_cell_angle_beta     91.161
_cell_angle_gamma    90

_space_group_name_H-M_alt    "P 1"
_space_group_IT_number       1

loop_
  _space_group_symop_operation_xyz
  'x, y, z'

loop_
  _atom_site_type_symbol
  _atom_site_label
  _atom_site_symmetry_multiplicity
  _atom_site_fract_x
  _atom_site_fract_y
  _atom_site_fract_z
  _atom_site_occupancy
  C   C1        1.0  0.86246  0.62870  0.09285  1.0000
  C   C2        1.0  0.90602  0.63636  0.00559  1.0000
  O   O1        1.0  0.96145  0.69108  0.00454  1.0000
  O   O2        1.0  0.89700  0.67112  0.15255  1.0000
  O   O3        1.0  0.80305  0.58534  0.09997  1.0000
  O   O4        1.0  0.88860  0.59297  0.94447  1.0000
  C   C3        1.0  0.86941  0.88249  0.11556  1.0000
  C   C4        1.0  0.88011  0.86506  0.21250  1.0000
  O   O5        1.0  0.91135  0.83402  0.06856  1.0000
  O   O6        1.0  0.93865  0.81494  0.23051  1.0000
  O   O7        1.0  0.82490  0.93578  0.08801  1.0000
  O   O8        1.0  0.83346  0.89694  0.26260  1.0000
  C   C5        1.0  0.14672  0.86607  0.13672  1.0000
  C   C6        1.0  0.12441  0.86101  0.03987  1.0000
  O   O9        1.0  0.09622  0.82703  0.18383  1.0000
  O   O10       1.0  0.06557  0.81132  0.02201  1.0000
  O   O11       1.0  0.20591  0.90459  0.16391  1.0000
  O   O12       1.0  0.16103  0.90307  0.98974  1.0000
  C   C7        1.0  0.08762  0.62732  0.24342  1.0000
  C   C8        1.0  0.12527  0.61418  0.15366  1.0000
  O   O13       1.0  0.03605  0.68605  0.24649  1.0000
  O   O14       1.0  0.09820  0.66533  0.09766  1.0000
  O   O15       1.0  0.17502  0.56161  0.14061  1.0000
  O   O16       1.0  0.10600  0.58451  0.30469  1.0000
  C   C9        1.0  0.40602  0.13636  0.50559  1.0000
  O   O17       1.0  0.46145  0.19108  0.50454  1.0000
  O   O18       1.0  0.39700  0.17112  0.65255  1.0000
  O   O19       1.0  0.30305  0.08534  0.59997  1.0000
  O   O20       1.0  0.38860  0.09297  0.44447  1.0000
  C   C10       1.0  0.36246  0.12870  0.59285  1.0000
  C   C11       1.0  0.38011  0.36506  0.71250  1.0000
  O   O21       1.0  0.41135  0.33402  0.56856  1.0000
  O   O22       1.0  0.43865  0.31494  0.73051  1.0000
  O   O23       1.0  0.32490  0.43578  0.58801  1.0000
  O   O24       1.0  0.33346  0.39694  0.76260  1.0000
  C   C12       1.0  0.36941  0.38249  0.61556  1.0000
  C   C13       1.0  0.62441  0.36101  0.53987  1.0000
  O   O25       1.0  0.59622  0.32703  0.68383  1.0000
  O   O26       1.0  0.56557  0.31132  0.52201  1.0000
  O   O27       1.0  0.70591  0.40459  0.66391  1.0000
  O   O28       1.0  0.66103  0.40307  0.48974  1.0000
  C   C14       1.0  0.64672  0.36607  0.63672  1.0000
  C   C15       1.0  0.58762  0.12732  0.74342  1.0000
  C   C16       1.0  0.62527  0.11418  0.65366  1.0000
  O   O29       1.0  0.53605  0.18605  0.74649  1.0000
  O   O30       1.0  0.59820  0.16533  0.59766  1.0000
  O   O31       1.0  0.67502  0.06161  0.64061  1.0000
  O   O32       1.0  0.60600  0.08451  0.80469  1.0000
  O   O33       1.0  0.53855  0.69108  0.99546  1.0000
  O   O34       1.0  0.60300  0.67112  0.84745  1.0000
  O   O35       1.0  0.69695  0.58534  0.90003  1.0000
  O   O36       1.0  0.61140  0.59297  0.05553  1.0000
  C   C17       1.0  0.63754  0.62870  0.90715  1.0000
  C   C18       1.0  0.59398  0.63636  0.99441  1.0000
  O   O37       1.0  0.58865  0.83402  0.93144  1.0000
  O   O38       1.0  0.56135  0.81494  0.76949  1.0000
  O   O39       1.0  0.67510  0.93578  0.91199  1.0000
  O   O40       1.0  0.66654  0.89694  0.73740  1.0000
  C   C19       1.0  0.63059  0.88249  0.88444  1.0000
  C   C20       1.0  0.61989  0.86506  0.78750  1.0000
  O   O41       1.0  0.40378  0.82703  0.81617  1.0000
  O   O42       1.0  0.43443  0.81132  0.97799  1.0000
  O   O43       1.0  0.29409  0.90459  0.83609  1.0000
  O   O44       1.0  0.33897  0.90307  0.01026  1.0000
  C   C21       1.0  0.35328  0.86607  0.86328  1.0000
  C   C22       1.0  0.37559  0.86101  0.96013  1.0000
  O   O45       1.0  0.46395  0.68605  0.75351  1.0000
  O   O46       1.0  0.40180  0.66533  0.90234  1.0000
  O   O47       1.0  0.32498  0.56161  0.85939  1.0000
  O   O48       1.0  0.39400  0.58451  0.69531  1.0000
  C   C23       1.0  0.41238  0.62732  0.75658  1.0000
  C   C24       1.0  0.37473  0.61418  0.84634  1.0000
  O   O49       1.0  0.19695  0.08534  0.40003  1.0000
  O   O50       1.0  0.11140  0.09297  0.55553  1.0000
  C   C25       1.0  0.13754  0.12870  0.40715  1.0000
  C   C26       1.0  0.09398  0.13636  0.49441  1.0000
  O   O51       1.0  0.03855  0.19108  0.49546  1.0000
  O   O52       1.0  0.10300  0.17112  0.34745  1.0000
  O   O53       1.0  0.08865  0.33402  0.43144  1.0000
  O   O54       1.0  0.06135  0.31494  0.26949  1.0000
  O   O55       1.0  0.17510  0.43578  0.41199  1.0000
  O   O56       1.0  0.16654  0.39694  0.23740  1.0000
  C   C27       1.0  0.13059  0.38249  0.38444  1.0000
  C   C28       1.0  0.11989  0.36506  0.28750  1.0000
  O   O57       1.0  0.93443  0.31132  0.47799  1.0000
  O   O58       1.0  0.79409  0.40459  0.33609  1.0000
  O   O59       1.0  0.83897  0.40307  0.51026  1.0000
  C   C29       1.0  0.85328  0.36607  0.36328  1.0000
  C   C30       1.0  0.87559  0.36101  0.46013  1.0000
  O   O60       1.0  0.90378  0.32703  0.31617  1.0000
  O   O61       1.0  0.82498  0.06161  0.35939  1.0000
  O   O62       1.0  0.89400  0.08451  0.19531  1.0000
  C   C31       1.0  0.91238  0.12732  0.25658  1.0000
  C   C32       1.0  0.87473  0.11418  0.34634  1.0000
  O   O63       1.0  0.96395  0.18605  0.25351  1.0000
  O   O64       1.0  0.90180  0.16533  0.40234  1.0000
  O   O65       1.0  0.11140  0.40703  0.05553  1.0000
  C   C33       1.0  0.13754  0.37130  0.90715  1.0000
  C   C34       1.0  0.09398  0.36364  0.99441  1.0000
  O   O66       1.0  0.03855  0.30892  0.99546  1.0000
  O   O67       1.0  0.10300  0.32888  0.84745  1.0000
  O   O68       1.0  0.19695  0.41466  0.90003  1.0000
  O   O69       1.0  0.17510  0.06422  0.91199  1.0000
  O   O70       1.0  0.16654  0.10306  0.73740  1.0000
  C   C35       1.0  0.13059  0.11751  0.88444  1.0000
  C   C36       1.0  0.11989  0.13494  0.78750  1.0000
  O   O71       1.0  0.08865  0.16598  0.93144  1.0000
  O   O72       1.0  0.06135  0.18506  0.76949  1.0000
  O   O73       1.0  0.79409  0.09541  0.83609  1.0000
  O   O74       1.0  0.83897  0.09693  0.01026  1.0000
  C   C37       1.0  0.85328  0.13393  0.86328  1.0000
  C   C38       1.0  0.87559  0.13899  0.96013  1.0000
  O   O75       1.0  0.90378  0.17297  0.81617  1.0000
  O   O76       1.0  0.93443  0.18868  0.97799  1.0000
  O   O77       1.0  0.89400  0.41549  0.69531  1.0000
  C   C39       1.0  0.91238  0.37268  0.75658  1.0000
  C   C40       1.0  0.87473  0.38582  0.84634  1.0000
  O   O78       1.0  0.96395  0.31395  0.75351  1.0000
  O   O79       1.0  0.90180  0.33467  0.90234  1.0000
  O   O80       1.0  0.82498  0.43839  0.85939  1.0000
  C   C41       1.0  0.63754  0.87130  0.40715  1.0000
  C   C42       1.0  0.59398  0.86364  0.49441  1.0000
  O   O81       1.0  0.53855  0.80892  0.49546  1.0000
  O   O82       1.0  0.60300  0.82888  0.34745  1.0000
  O   O83       1.0  0.69695  0.91466  0.40003  1.0000
  O   O84       1.0  0.61140  0.90703  0.55553  1.0000
  C   C43       1.0  0.63059  0.61751  0.38444  1.0000
  C   C44       1.0  0.61989  0.63494  0.28750  1.0000
  O   O85       1.0  0.58865  0.66598  0.43144  1.0000
  O   O86       1.0  0.56135  0.68506  0.26949  1.0000
  O   O87       1.0  0.67510  0.56422  0.41199  1.0000
  O   O88       1.0  0.66654  0.60306  0.23740  1.0000
  C   C45       1.0  0.35328  0.63393  0.36328  1.0000
  C   C46       1.0  0.37559  0.63899  0.46013  1.0000
  O   O89       1.0  0.40378  0.67297  0.31617  1.0000
  O   O90       1.0  0.43443  0.68868  0.47799  1.0000
  O   O91       1.0  0.29409  0.59541  0.33609  1.0000
  O   O92       1.0  0.33897  0.59693  0.51026  1.0000
  O   O93       1.0  0.39400  0.91549  0.19531  1.0000
  C   C47       1.0  0.41238  0.87268  0.25658  1.0000
  C   C48       1.0  0.37473  0.88582  0.34634  1.0000
  O   O94       1.0  0.46395  0.81395  0.25351  1.0000
  O   O95       1.0  0.40180  0.83467  0.40234  1.0000
  O   O96       1.0  0.32498  0.93839  0.35939  1.0000
  C   C49       1.0  0.36246  0.37130  0.09285  1.0000
  C   C50       1.0  0.40602  0.36364  0.00559  1.0000
  O   O97       1.0  0.46145  0.30892  0.00454  1.0000
  O   O98       1.0  0.39700  0.32888  0.15255  1.0000
  O   O99       1.0  0.30305  0.41466  0.09997  1.0000
  O   O100      1.0  0.38860  0.40703  0.94447  1.0000
  C   C51       1.0  0.36941  0.11751  0.11556  1.0000
  C   C52       1.0  0.38011  0.13494  0.21250  1.0000
  O   O101      1.0  0.41135  0.16598  0.06856  1.0000
  O   O102      1.0  0.43865  0.18506  0.23051  1.0000
  O   O103      1.0  0.32490  0.06422  0.08801  1.0000
  O   O104      1.0  0.33346  0.10306  0.26260  1.0000
  C   C53       1.0  0.64672  0.13393  0.13672  1.0000
  C   C54       1.0  0.62441  0.13899  0.03987  1.0000
  O   O105      1.0  0.59622  0.17297  0.18383  1.0000
  O   O106      1.0  0.56557  0.18868  0.02201  1.0000
  O   O107      1.0  0.70591  0.09541  0.16391  1.0000
  O   O108      1.0  0.66103  0.09693  0.98974  1.0000
  C   C55       1.0  0.58762  0.37268  0.24342  1.0000
  C   C56       1.0  0.62527  0.38582  0.15366  1.0000
  O   O109      1.0  0.53605  0.31395  0.24649  1.0000
  O   O110      1.0  0.59820  0.33467  0.09766  1.0000
  O   O111      1.0  0.67502  0.43839  0.14061  1.0000
  O   O112      1.0  0.60600  0.41549  0.30469  1.0000
  C   C57       1.0  0.90602  0.86364  0.50559  1.0000
  O   O113      1.0  0.96145  0.80892  0.50454  1.0000
  O   O114      1.0  0.89700  0.82888  0.65255  1.0000
  O   O115      1.0  0.80305  0.91466  0.59997  1.0000
  O   O116      1.0  0.88860  0.90703  0.44447  1.0000
  C   C58       1.0  0.86246  0.87130  0.59285  1.0000
  C   C59       1.0  0.86941  0.61751  0.61556  1.0000
  C   C60       1.0  0.88011  0.63494  0.71250  1.0000
  O   O117      1.0  0.91135  0.66598  0.56856  1.0000
  O   O118      1.0  0.93865  0.68506  0.73051  1.0000
  O   O119      1.0  0.82490  0.56422  0.58801  1.0000
  O   O120      1.0  0.83346  0.60306  0.76260  1.0000
  C   C61       1.0  0.14672  0.63393  0.63672  1.0000
  C   C62       1.0  0.12441  0.63899  0.53987  1.0000
  O   O121      1.0  0.09622  0.67297  0.68383  1.0000
  O   O122      1.0  0.06557  0.68868  0.52201  1.0000
  O   O123      1.0  0.20591  0.59541  0.66391  1.0000
  O   O124      1.0  0.16103  0.59693  0.48974  1.0000
  C   C63       1.0  0.08762  0.87268  0.74342  1.0000
  C   C64       1.0  0.12527  0.88582  0.65366  1.0000
  O   O125      1.0  0.03605  0.81395  0.74649  1.0000
  O   O126      1.0  0.09820  0.83467  0.59766  1.0000
  O   O127      1.0  0.17502  0.93839  0.64061  1.0000
  O   O128      1.0  0.10600  0.91549  0.80469  1.0000
  Li  Li1       1.0  0.80520  0.04740  0.11660  1.0000
  Li  Li2       1.0  0.19570  0.44910  0.13260  1.0000
  Zr  Zr1       1.0  0.99955  0.24956  0.87369  1.0000
  Li  Li3       1.0  0.69480  0.45260  0.38340  1.0000
  Li  Li4       1.0  0.30430  0.05090  0.36740  1.0000
  Zr  Zr2       1.0  0.49955  0.75044  0.87369  1.0000
  Li  Li5       1.0  0.19480  0.54740  0.38340  1.0000
  Li  Li6       1.0  0.80430  0.94910  0.36740  1.0000
  Zr  Zr3       1.0  0.00045  0.74956  0.62631  1.0000
  Zr  Zr4       1.0  0.00045  0.75044  0.12631  1.0000
  Li  Li7       1.0  0.30520  0.54740  0.61660  1.0000
  Li  Li8       1.0  0.69570  0.94910  0.63260  1.0000
  Zr  Zr5       1.0  0.49955  0.74956  0.37369  1.0000
  Li  Li9       1.0  0.30520  0.95260  0.11660  1.0000
  Li  Li10      1.0  0.69570  0.55090  0.13260  1.0000
  Zr  Zr6       1.0  0.99955  0.25044  0.37369  1.0000
  Li  Li11      1.0  0.19480  0.95260  0.88340  1.0000
  Li  Li12      1.0  0.80430  0.55090  0.86740  1.0000
  Zr  Zr7       1.0  0.50045  0.25044  0.62631  1.0000
  Li  Li13      1.0  0.69480  0.04740  0.88340  1.0000
  Li  Li14      1.0  0.30430  0.44910  0.86740  1.0000
  Zr  Zr8       1.0  0.50045  0.24956  0.12631  1.0000
  Li  Li15      1.0  0.80520  0.45260  0.61660  1.0000
  Li  Li16      1.0  0.19570  0.05090  0.63260  1.0000
