data_image0
_chemical_formula_structural       O4NHC3HCHC2HC5HC2HCHO4NHC3HCHC2HC5HC2HCHN2CHC2HC2HCHCHCHCHCHN2CHC2HC2HCHCHCHCHCHCo2
_chemical_formula_sum              "O8 N6 H30 C48 Co2"
_cell_length_a       9.9645
_cell_length_b       11.4007
_cell_length_c       13.1307
_cell_angle_alpha    99.535
_cell_angle_beta     97.138
_cell_angle_gamma    115.732

_space_group_name_H-M_alt    "P 1"
_space_group_IT_number       1

loop_
  _space_group_symop_operation_xyz
  'x, y, z'

loop_
  _atom_site_type_symbol
  _atom_site_label
  _atom_site_symmetry_multiplicity
  _atom_site_fract_x
  _atom_site_fract_y
  _atom_site_fract_z
  _atom_site_occupancy
  O   O1        1.0  0.22910  0.13040  0.06130  1.0000
  O   O2        1.0  0.07360  0.01830  0.15720  1.0000
  O   O3        1.0  0.18930  0.05330  0.74320  1.0000
  O   O4        1.0  0.38880  0.14650  0.87430  1.0000
  N   N1        1.0  0.69520  0.21510  0.47450  1.0000
  H   H1        1.0  0.79060  0.23930  0.47760  1.0000
  C   C1        1.0  0.20230  0.09100  0.14370  1.0000
  C   C2        1.0  0.44380  0.15150  0.41070  1.0000
  C   C3        1.0  0.31780  0.11760  0.33220  1.0000
  H   H2        1.0  0.22120  0.08670  0.34710  1.0000
  C   C4        1.0  0.37250  0.12220  0.59250  1.0000
  H   H3        1.0  0.26830  0.09180  0.56910  1.0000
  C   C5        1.0  0.33200  0.11000  0.77570  1.0000
  C   C6        1.0  0.58820  0.17280  0.73070  1.0000
  H   H4        1.0  0.62710  0.17790  0.80040  1.0000
  C   C7        1.0  0.33680  0.13010  0.23100  1.0000
  C   C8        1.0  0.46760  0.15170  0.52250  1.0000
  C   C9        1.0  0.43310  0.13790  0.69920  1.0000
  C   C10       1.0  0.62440  0.19190  0.55730  1.0000
  C   C11       1.0  0.48340  0.17740  0.20970  1.0000
  H   H5        1.0  0.49550  0.19000  0.14260  1.0000
  C   C12       1.0  0.59060  0.19380  0.38570  1.0000
  C   C13       1.0  0.61090  0.20600  0.28510  1.0000
  H   H6        1.0  0.70630  0.23230  0.26860  1.0000
  C   C14       1.0  0.68560  0.20010  0.66080  1.0000
  H   H7        1.0  0.78810  0.22290  0.68250  1.0000
  O   O5        1.0  0.77090  0.86960  0.93870  1.0000
  O   O6        1.0  0.92640  0.98170  0.84280  1.0000
  O   O7        1.0  0.81070  0.94670  0.25680  1.0000
  O   O8        1.0  0.61120  0.85350  0.12570  1.0000
  N   N2        1.0  0.30480  0.78490  0.52550  1.0000
  H   H8        1.0  0.20940  0.76070  0.52240  1.0000
  C   C15       1.0  0.79770  0.90900  0.85630  1.0000
  C   C16       1.0  0.55620  0.84850  0.58930  1.0000
  C   C17       1.0  0.68220  0.88240  0.66780  1.0000
  H   H9        1.0  0.77880  0.91330  0.65290  1.0000
  C   C18       1.0  0.62750  0.87780  0.40750  1.0000
  H   H10       1.0  0.73170  0.90820  0.43090  1.0000
  C   C19       1.0  0.66800  0.89000  0.22430  1.0000
  C   C20       1.0  0.41180  0.82720  0.26930  1.0000
  H   H11       1.0  0.37290  0.82210  0.19960  1.0000
  C   C21       1.0  0.66320  0.86990  0.76900  1.0000
  C   C22       1.0  0.53240  0.84830  0.47750  1.0000
  C   C23       1.0  0.56690  0.86210  0.30080  1.0000
  C   C24       1.0  0.37560  0.80810  0.44270  1.0000
  C   C25       1.0  0.51660  0.82260  0.79030  1.0000
  H   H12       1.0  0.50450  0.81000  0.85740  1.0000
  C   C26       1.0  0.40940  0.80620  0.61430  1.0000
  C   C27       1.0  0.38910  0.79400  0.71490  1.0000
  H   H13       1.0  0.29370  0.76770  0.73140  1.0000
  C   C28       1.0  0.31440  0.79990  0.33920  1.0000
  H   H14       1.0  0.21190  0.77710  0.31750  1.0000
  N   N3        1.0  0.15130  0.88140  0.90680  1.0000
  N   N4        1.0  0.16040  0.26260  0.90650  1.0000
  C   C29       1.0  0.26880  0.87850  0.96520  1.0000
  H   H15       1.0  0.34920  0.95970  0.00530  1.0000
  C   C30       1.0  0.15930  0.63860  0.90950  1.0000
  C   C31       1.0  0.27810  0.76210  0.96970  1.0000
  H   H16       1.0  0.36230  0.76570  0.01230  1.0000
  C   C32       1.0  0.16090  0.50930  0.91010  1.0000
  C   C33       1.0  0.03920  0.76320  0.84720  1.0000
  H   H17       1.0  0.95780  0.76320  0.80410  1.0000
  C   C34       1.0  0.03830  0.64270  0.84630  1.0000
  H   H18       1.0  0.95740  0.56360  0.80380  1.0000
  C   C35       1.0  0.27420  0.49830  0.96680  1.0000
  H   H19       1.0  0.35860  0.57540  0.00860  1.0000
  C   C36       1.0  0.03950  0.39170  0.86340  1.0000
  H   H20       1.0  0.94780  0.38880  0.83430  1.0000
  C   C37       1.0  0.04990  0.27260  0.85790  1.0000
  H   H21       1.0  0.96860  0.19420  0.81490  1.0000
  C   C38       1.0  0.26800  0.37530  0.96430  1.0000
  H   H22       1.0  0.34780  0.37320  0.00760  1.0000
  N   N5        1.0  0.84870  0.11860  0.09320  1.0000
  N   N6        1.0  0.83960  0.73740  0.09350  1.0000
  C   C39       1.0  0.73120  0.12150  0.03480  1.0000
  H   H23       1.0  0.65080  0.04030  0.99470  1.0000
  C   C40       1.0  0.84070  0.36140  0.09050  1.0000
  C   C41       1.0  0.72190  0.23790  0.03030  1.0000
  H   H24       1.0  0.63770  0.23430  0.98770  1.0000
  C   C42       1.0  0.83910  0.49070  0.08990  1.0000
  C   C43       1.0  0.96080  0.23680  0.15280  1.0000
  H   H25       1.0  0.04220  0.23680  0.19590  1.0000
  C   C44       1.0  0.96170  0.35730  0.15370  1.0000
  H   H26       1.0  0.04260  0.43640  0.19620  1.0000
  C   C45       1.0  0.72580  0.50170  0.03320  1.0000
  H   H27       1.0  0.64140  0.42460  0.99140  1.0000
  C   C46       1.0  0.96050  0.60830  0.13660  1.0000
  H   H28       1.0  0.05220  0.61120  0.16570  1.0000
  C   C47       1.0  0.95010  0.72740  0.14210  1.0000
  H   H29       1.0  0.03140  0.80580  0.18510  1.0000
  C   C48       1.0  0.73200  0.62470  0.03570  1.0000
  H   H30       1.0  0.65220  0.62680  0.99240  1.0000
  Co  Co1       1.0  0.15377  0.06979  0.90337  1.0000
  Co  Co2       1.0  0.84623  0.93021  0.09663  1.0000
