data_image0
_chemical_formula_structural       O4NHC3HC4HCHCHC4HCHO4NHC3HC4HCHCHC4HCHN2CHCHCHC3HCHCHCHCHN2CHCHCHC3HCHCHCHCHZn2
_chemical_formula_sum              "O8 N6 H30 C48 Zn2"
_cell_length_a       9.9996
_cell_length_b       11.1621
_cell_length_c       13.1818
_cell_angle_alpha    75.351
_cell_angle_beta     82.873
_cell_angle_gamma    64.808

_space_group_name_H-M_alt    "P 1"
_space_group_IT_number       1

loop_
  _space_group_symop_operation_xyz
  'x, y, z'

loop_
  _atom_site_type_symbol
  _atom_site_label
  _atom_site_symmetry_multiplicity
  _atom_site_fract_x
  _atom_site_fract_y
  _atom_site_fract_z
  _atom_site_occupancy
  O   O1        1.0  0.60460  0.13550  0.93843  1.0000
  O   O2        1.0  0.55280  0.02440  0.84096  1.0000
  O   O3        1.0  0.73740  0.15520  0.12907  1.0000
  O   O4        1.0  0.62780  0.06130  0.25635  1.0000
  N   N1        1.0  0.98540  0.21030  0.52742  1.0000
  H   H1        1.0  0.05790  0.23340  0.52460  1.0000
  C   C1        1.0  0.61390  0.09450  0.85630  1.0000
  C   C2        1.0  0.79450  0.15350  0.58970  1.0000
  C   C3        1.0  0.69990  0.12170  0.66810  1.0000
  H   H2        1.0  0.63100  0.09350  0.65290  1.0000
  C   C4        1.0  0.71560  0.11820  0.22540  1.0000
  C   C5        1.0  0.81560  0.15370  0.47860  1.0000
  C   C6        1.0  0.71000  0.13270  0.76890  1.0000
  C   C7        1.0  0.74570  0.12860  0.40750  1.0000
  H   H3        1.0  0.66730  0.10360  0.42920  1.0000
  C   C8        1.0  0.91400  0.17380  0.27230  1.0000
  H   H4        1.0  0.94570  0.18070  0.20250  1.0000
  C   C9        1.0  0.81330  0.17460  0.79110  1.0000
  H   H5        1.0  0.81610  0.18460  0.85860  1.0000
  C   C10       1.0  0.79310  0.14080  0.30350  1.0000
  C   C11       1.0  0.93560  0.18860  0.44550  1.0000
  C   C12       1.0  0.90150  0.18960  0.61600  1.0000
  C   C13       1.0  0.91180  0.20190  0.71600  1.0000
  H   H6        1.0  0.98240  0.22750  0.73210  1.0000
  C   C14       1.0  0.98730  0.19640  0.34180  1.0000
  H   H7        1.0  0.06920  0.21630  0.32040  1.0000
  O   O5        1.0  0.39540  0.86450  0.06157  1.0000
  O   O6        1.0  0.44720  0.97560  0.15904  1.0000
  O   O7        1.0  0.26260  0.84480  0.87093  1.0000
  O   O8        1.0  0.37220  0.93870  0.74365  1.0000
  N   N2        1.0  0.01460  0.78970  0.47258  1.0000
  H   H8        1.0  0.94210  0.76660  0.47540  1.0000
  C   C15       1.0  0.38610  0.90550  0.14370  1.0000
  C   C16       1.0  0.20550  0.84650  0.41030  1.0000
  C   C17       1.0  0.30010  0.87830  0.33190  1.0000
  H   H9        1.0  0.36900  0.90650  0.34710  1.0000
  C   C18       1.0  0.28440  0.88180  0.77460  1.0000
  C   C19       1.0  0.18440  0.84630  0.52140  1.0000
  C   C20       1.0  0.29000  0.86730  0.23110  1.0000
  C   C21       1.0  0.25430  0.87140  0.59250  1.0000
  H   H10       1.0  0.33270  0.89640  0.57080  1.0000
  C   C22       1.0  0.08600  0.82620  0.72770  1.0000
  H   H11       1.0  0.05430  0.81930  0.79750  1.0000
  C   C23       1.0  0.18670  0.82540  0.20890  1.0000
  H   H12       1.0  0.18390  0.81540  0.14140  1.0000
  C   C24       1.0  0.20690  0.85920  0.69650  1.0000
  C   C25       1.0  0.06440  0.81140  0.55450  1.0000
  C   C26       1.0  0.09850  0.81040  0.38400  1.0000
  C   C27       1.0  0.08820  0.79810  0.28400  1.0000
  H   H13       1.0  0.01760  0.77250  0.26790  1.0000
  C   C28       1.0  0.01270  0.80360  0.65820  1.0000
  H   H14       1.0  0.93080  0.78370  0.67960  1.0000
  N   N3        1.0  0.76670  0.88380  0.08990  1.0000
  N   N4        1.0  0.39320  0.26470  0.09000  1.0000
  C   C29       1.0  0.77220  0.76470  0.14620  1.0000
  H   H15       1.0  0.68980  0.76370  0.18710  1.0000
  C   C30       1.0  0.01150  0.76480  0.02730  1.0000
  H   H16       1.0  0.09200  0.76860  0.98510  1.0000
  C   C31       1.0  0.88720  0.88180  0.03110  1.0000
  H   H17       1.0  0.88640  0.96360  0.99100  1.0000
  C   C32       1.0  0.01660  0.64180  0.08610  1.0000
  C   C33       1.0  0.14750  0.51260  0.08630  1.0000
  C   C34       1.0  0.89150  0.64370  0.14760  1.0000
  H   H18       1.0  0.88960  0.56340  0.18900  1.0000
  C   C35       1.0  0.38960  0.37950  0.03480  1.0000
  H   H19       1.0  0.47330  0.37840  0.99470  1.0000
  C   C36       1.0  0.14730  0.39230  0.13730  1.0000
  H   H20       1.0  0.06190  0.39010  0.17310  1.0000
  C   C37       1.0  0.27200  0.50290  0.03050  1.0000
  H   H21       1.0  0.27870  0.58090  0.98850  1.0000
  C   C38       1.0  0.26920  0.27210  0.13810  1.0000
  H   H22       1.0  0.26260  0.19190  0.17500  1.0000
  N   N5        1.0  0.23330  0.11620  0.91010  1.0000
  N   N6        1.0  0.60680  0.73530  0.91000  1.0000
  C   C39       1.0  0.22780  0.23530  0.85380  1.0000
  H   H23       1.0  0.31020  0.23630  0.81290  1.0000
  C   C40       1.0  0.98850  0.23520  0.97270  1.0000
  H   H24       1.0  0.90800  0.23140  0.01490  1.0000
  C   C41       1.0  0.11280  0.11820  0.96890  1.0000
  H   H25       1.0  0.11360  0.03640  0.00900  1.0000
  C   C42       1.0  0.98340  0.35820  0.91390  1.0000
  C   C43       1.0  0.85250  0.48740  0.91370  1.0000
  C   C44       1.0  0.10850  0.35630  0.85240  1.0000
  H   H26       1.0  0.11040  0.43660  0.81100  1.0000
  C   C45       1.0  0.61040  0.62050  0.96520  1.0000
  H   H27       1.0  0.52670  0.62160  0.00530  1.0000
  C   C46       1.0  0.85270  0.60770  0.86270  1.0000
  H   H28       1.0  0.93810  0.60990  0.82690  1.0000
  C   C47       1.0  0.72800  0.49710  0.96950  1.0000
  H   H29       1.0  0.72130  0.41910  0.01150  1.0000
  C   C48       1.0  0.73080  0.72790  0.86190  1.0000
  H   H30       1.0  0.73740  0.80810  0.82500  1.0000
  Zn  Zn1       1.0  0.57986  0.07196  0.09499  1.0000
  Zn  Zn2       1.0  0.42014  0.92804  0.90501  1.0000
