data_image0
_chemical_formula_structural       PO3NHCH2CHCH3C2HCHCHCHCHPO3NHCH2CHCH3C2HCHCHCHCHPO3NHCH2CHCH3C2HCHCHCHCHCHCHPO3NHCH2CHCH3C2HCHCHPO3NHCH2CHCH3C2HCHCHCHCHPO3NHCH2CHCH3C2HCHCHCHCHCo6PO3NHCH2CHCH3C2HCHCHCHCHPO3NHCH2CHCH3C2HCHCHCHCHPO3NHCH2CHCH3C2HCHCHCHCHCHCHPO3NHCH2CHCH3C2HCHCHPO3NHCH2CHCH3C2HCHCHCHCHPO3NHCH2CHCH3C2HCHCHCHCHCo6
_chemical_formula_sum              "P12 O36 N12 H144 C108 Co12"
_cell_length_a       18.3143
_cell_length_b       18.3143
_cell_length_c       12.3376
_cell_angle_alpha    90
_cell_angle_beta     90
_cell_angle_gamma    120

_space_group_name_H-M_alt    "P 1"
_space_group_IT_number       1

loop_
  _space_group_symop_operation_xyz
  'x, y, z'

loop_
  _atom_site_type_symbol
  _atom_site_label
  _atom_site_symmetry_multiplicity
  _atom_site_fract_x
  _atom_site_fract_y
  _atom_site_fract_z
  _atom_site_occupancy
  P   P1        1.0  0.02202  0.77939  0.10930  1.0000
  O   O1        1.0  0.04250  0.84910  0.19305  1.0000
  O   O2        1.0  0.08300  0.81190  0.01285  1.0000
  O   O3        1.0  0.93030  0.73450  0.07520  1.0000
  N   N1        1.0  0.10710  0.74480  0.26340  1.0000
  H   H1        1.0  0.15080  0.77260  0.23550  1.0000
  C   C1        1.0  0.04190  0.70260  0.17925  1.0000
  H   H2        1.0  0.99010  0.65950  0.21240  1.0000
  H   H3        1.0  0.06030  0.67550  0.12725  1.0000
  C   C2        1.0  0.12370  0.68660  0.32955  1.0000
  H   H4        1.0  0.07660  0.65820  0.38050  1.0000
  C   C3        1.0  0.20340  0.73800  0.39725  1.0000
  H   H5        1.0  0.25120  0.76660  0.35000  1.0000
  H   H6        1.0  0.21150  0.70100  0.44450  1.0000
  H   H7        1.0  0.19760  0.77870  0.43970  1.0000
  C   C4        1.0  0.12800  0.61840  0.26530  1.0000
  C   C5        1.0  0.17980  0.63870  0.17365  1.0000
  H   H8        1.0  0.21270  0.69500  0.15355  1.0000
  C   C6        1.0  0.18320  0.57730  0.11245  1.0000
  H   H9        1.0  0.21640  0.59220  0.05040  1.0000
  C   C7        1.0  0.13740  0.49410  0.14340  1.0000
  H   H10       1.0  0.14040  0.45280  0.10320  1.0000
  C   C8        1.0  0.08710  0.47240  0.23385  1.0000
  H   H11       1.0  0.05590  0.41610  0.25475  1.0000
  C   C9        1.0  0.08260  0.53430  0.29440  1.0000
  H   H12       1.0  0.04840  0.51880  0.35565  1.0000
  P   P2        1.0  0.22061  0.24263  0.10930  1.0000
  O   O4        1.0  0.15090  0.19340  0.19305  1.0000
  O   O5        1.0  0.18810  0.27110  0.01285  1.0000
  O   O6        1.0  0.26550  0.19580  0.07520  1.0000
  N   N2        1.0  0.25520  0.36230  0.26340  1.0000
  H   H13       1.0  0.22740  0.37820  0.23550  1.0000
  C   C10       1.0  0.29740  0.33930  0.17925  1.0000
  H   H14       1.0  0.34050  0.33060  0.21240  1.0000
  H   H15       1.0  0.32450  0.38480  0.12725  1.0000
  C   C11       1.0  0.31340  0.43710  0.32955  1.0000
  H   H16       1.0  0.34180  0.41840  0.38050  1.0000
  C   C12       1.0  0.26200  0.46540  0.39725  1.0000
  H   H17       1.0  0.23340  0.48460  0.35000  1.0000
  H   H18       1.0  0.29900  0.51050  0.44450  1.0000
  H   H19       1.0  0.22130  0.41890  0.43970  1.0000
  C   C13       1.0  0.38160  0.50960  0.26530  1.0000
  C   C14       1.0  0.36130  0.54110  0.17365  1.0000
  H   H20       1.0  0.30500  0.51770  0.15355  1.0000
  C   C15       1.0  0.42270  0.60590  0.11245  1.0000
  H   H21       1.0  0.40780  0.62420  0.05040  1.0000
  C   C16       1.0  0.50590  0.64330  0.14340  1.0000
  H   H22       1.0  0.54720  0.68760  0.10320  1.0000
  C   C17       1.0  0.52760  0.61470  0.23385  1.0000
  H   H23       1.0  0.58390  0.63980  0.25475  1.0000
  C   C18       1.0  0.46570  0.54830  0.29440  1.0000
  H   H24       1.0  0.48120  0.52960  0.35565  1.0000
  P   P3        1.0  0.75737  0.97798  0.10930  1.0000
  O   O7        1.0  0.80660  0.95750  0.19305  1.0000
  O   O8        1.0  0.72890  0.91700  0.01285  1.0000
  O   O9        1.0  0.80420  0.06970  0.07520  1.0000
  N   N3        1.0  0.63770  0.89290  0.26340  1.0000
  H   H25       1.0  0.62180  0.84920  0.23550  1.0000
  C   C19       1.0  0.66070  0.95810  0.17925  1.0000
  H   H26       1.0  0.66940  0.00990  0.21240  1.0000
  H   H27       1.0  0.61520  0.93970  0.12725  1.0000
  C   C20       1.0  0.56290  0.87630  0.32955  1.0000
  H   H28       1.0  0.58160  0.92340  0.38050  1.0000
  C   C21       1.0  0.53460  0.79660  0.39725  1.0000
  H   H29       1.0  0.51540  0.74880  0.35000  1.0000
  H   H30       1.0  0.48950  0.78850  0.44450  1.0000
  H   H31       1.0  0.58110  0.80240  0.43970  1.0000
  C   C22       1.0  0.49040  0.87200  0.26530  1.0000
  C   C23       1.0  0.45890  0.82020  0.17365  1.0000
  H   H32       1.0  0.48230  0.78730  0.15355  1.0000
  C   C24       1.0  0.39410  0.81680  0.11245  1.0000
  H   H33       1.0  0.37580  0.78360  0.05040  1.0000
  C   C25       1.0  0.35670  0.86260  0.14340  1.0000
  H   H34       1.0  0.31240  0.85960  0.10320  1.0000
  C   C26       1.0  0.38530  0.91290  0.23385  1.0000
  H   H35       1.0  0.36020  0.94410  0.25475  1.0000
  C   C27       1.0  0.45170  0.91740  0.29440  1.0000
  H   H36       1.0  0.47040  0.95160  0.35565  1.0000
  C   C28       1.0  0.91290  0.52760  0.48385  1.0000
  H   H37       1.0  0.94410  0.58390  0.00475  1.0000
  C   C29       1.0  0.91740  0.46570  0.04440  1.0000
  H   H38       1.0  0.95160  0.48120  0.10565  1.0000
  P   P4        1.0  0.97798  0.22061  0.35930  1.0000
  O   O10       1.0  0.95750  0.15090  0.44305  1.0000
  O   O11       1.0  0.91700  0.18810  0.26285  1.0000
  O   O12       1.0  0.06970  0.26550  0.32520  1.0000
  N   N4        1.0  0.89290  0.25520  0.01340  1.0000
  H   H39       1.0  0.84920  0.22740  0.48550  1.0000
  C   C30       1.0  0.95810  0.29740  0.42925  1.0000
  H   H40       1.0  0.00990  0.34050  0.46240  1.0000
  H   H41       1.0  0.93970  0.32450  0.37725  1.0000
  C   C31       1.0  0.87630  0.31340  0.07955  1.0000
  H   H42       1.0  0.92340  0.34180  0.13050  1.0000
  C   C32       1.0  0.79660  0.26200  0.14725  1.0000
  H   H43       1.0  0.74880  0.23340  0.10000  1.0000
  H   H44       1.0  0.78850  0.29900  0.19450  1.0000
  H   H45       1.0  0.80240  0.22130  0.18970  1.0000
  C   C33       1.0  0.87200  0.38160  0.01530  1.0000
  C   C34       1.0  0.82020  0.36130  0.42365  1.0000
  H   H46       1.0  0.78730  0.30500  0.40355  1.0000
  C   C35       1.0  0.81680  0.42270  0.36245  1.0000
  H   H47       1.0  0.78360  0.40780  0.30040  1.0000
  C   C36       1.0  0.86260  0.50590  0.39340  1.0000
  H   H48       1.0  0.85960  0.54720  0.35320  1.0000
  P   P5        1.0  0.77939  0.75737  0.35930  1.0000
  O   O13       1.0  0.84910  0.80660  0.44305  1.0000
  O   O14       1.0  0.81190  0.72890  0.26285  1.0000
  O   O15       1.0  0.73450  0.80420  0.32520  1.0000
  N   N5        1.0  0.74480  0.63770  0.01340  1.0000
  H   H49       1.0  0.77260  0.62180  0.48550  1.0000
  C   C37       1.0  0.70260  0.66070  0.42925  1.0000
  H   H50       1.0  0.65950  0.66940  0.46240  1.0000
  H   H51       1.0  0.67550  0.61520  0.37725  1.0000
  C   C38       1.0  0.68660  0.56290  0.07955  1.0000
  H   H52       1.0  0.65820  0.58160  0.13050  1.0000
  C   C39       1.0  0.73800  0.53460  0.14725  1.0000
  H   H53       1.0  0.76660  0.51540  0.10000  1.0000
  H   H54       1.0  0.70100  0.48950  0.19450  1.0000
  H   H55       1.0  0.77870  0.58110  0.18970  1.0000
  C   C40       1.0  0.61840  0.49040  0.01530  1.0000
  C   C41       1.0  0.63870  0.45890  0.42365  1.0000
  H   H56       1.0  0.69500  0.48230  0.40355  1.0000
  C   C42       1.0  0.57730  0.39410  0.36245  1.0000
  H   H57       1.0  0.59220  0.37580  0.30040  1.0000
  C   C43       1.0  0.49410  0.35670  0.39340  1.0000
  H   H58       1.0  0.45280  0.31240  0.35320  1.0000
  C   C44       1.0  0.47240  0.38530  0.48385  1.0000
  H   H59       1.0  0.41610  0.36020  0.00475  1.0000
  C   C45       1.0  0.53430  0.45170  0.04440  1.0000
  H   H60       1.0  0.51880  0.47040  0.10565  1.0000
  P   P6        1.0  0.24263  0.02202  0.35930  1.0000
  O   O16       1.0  0.19340  0.04250  0.44305  1.0000
  O   O17       1.0  0.27110  0.08300  0.26285  1.0000
  O   O18       1.0  0.19580  0.93030  0.32520  1.0000
  N   N6        1.0  0.36230  0.10710  0.01340  1.0000
  H   H61       1.0  0.37820  0.15080  0.48550  1.0000
  C   C46       1.0  0.33930  0.04190  0.42925  1.0000
  H   H62       1.0  0.33060  0.99010  0.46240  1.0000
  H   H63       1.0  0.38480  0.06030  0.37725  1.0000
  C   C47       1.0  0.43710  0.12370  0.07955  1.0000
  H   H64       1.0  0.41840  0.07660  0.13050  1.0000
  C   C48       1.0  0.46540  0.20340  0.14725  1.0000
  H   H65       1.0  0.48460  0.25120  0.10000  1.0000
  H   H66       1.0  0.51050  0.21150  0.19450  1.0000
  H   H67       1.0  0.41890  0.19760  0.18970  1.0000
  C   C49       1.0  0.50960  0.12800  0.01530  1.0000
  C   C50       1.0  0.54110  0.17980  0.42365  1.0000
  H   H68       1.0  0.51770  0.21270  0.40355  1.0000
  C   C51       1.0  0.60590  0.18320  0.36245  1.0000
  H   H69       1.0  0.62420  0.21640  0.30040  1.0000
  C   C52       1.0  0.64330  0.13740  0.39340  1.0000
  H   H70       1.0  0.68760  0.14040  0.35320  1.0000
  C   C53       1.0  0.61470  0.08710  0.48385  1.0000
  H   H71       1.0  0.63980  0.05590  0.00475  1.0000
  C   C54       1.0  0.54830  0.08260  0.04440  1.0000
  H   H72       1.0  0.52960  0.04840  0.10565  1.0000
  Co  Co1       1.0  0.07214  0.83065  0.34879  1.0000
  Co  Co2       1.0  0.16935  0.24149  0.34879  1.0000
  Co  Co3       1.0  0.75851  0.92786  0.34879  1.0000
  Co  Co4       1.0  0.92786  0.16935  0.09879  1.0000
  Co  Co5       1.0  0.83065  0.75851  0.09879  1.0000
  Co  Co6       1.0  0.24149  0.07214  0.09879  1.0000
  P   P7        1.0  0.02202  0.77939  0.60930  1.0000
  O   O19       1.0  0.04250  0.84910  0.69305  1.0000
  O   O20       1.0  0.08300  0.81190  0.51285  1.0000
  O   O21       1.0  0.93030  0.73450  0.57520  1.0000
  N   N7        1.0  0.10710  0.74480  0.76340  1.0000
  H   H73       1.0  0.15080  0.77260  0.73550  1.0000
  C   C55       1.0  0.04190  0.70260  0.67925  1.0000
  H   H74       1.0  0.99010  0.65950  0.71240  1.0000
  H   H75       1.0  0.06030  0.67550  0.62725  1.0000
  C   C56       1.0  0.12370  0.68660  0.82955  1.0000
  H   H76       1.0  0.07660  0.65820  0.88050  1.0000
  C   C57       1.0  0.20340  0.73800  0.89725  1.0000
  H   H77       1.0  0.25120  0.76660  0.85000  1.0000
  H   H78       1.0  0.21150  0.70100  0.94450  1.0000
  H   H79       1.0  0.19760  0.77870  0.93970  1.0000
  C   C58       1.0  0.12800  0.61840  0.76530  1.0000
  C   C59       1.0  0.17980  0.63870  0.67365  1.0000
  H   H80       1.0  0.21270  0.69500  0.65355  1.0000
  C   C60       1.0  0.18320  0.57730  0.61245  1.0000
  H   H81       1.0  0.21640  0.59220  0.55040  1.0000
  C   C61       1.0  0.13740  0.49410  0.64340  1.0000
  H   H82       1.0  0.14040  0.45280  0.60320  1.0000
  C   C62       1.0  0.08710  0.47240  0.73385  1.0000
  H   H83       1.0  0.05590  0.41610  0.75475  1.0000
  C   C63       1.0  0.08260  0.53430  0.79440  1.0000
  H   H84       1.0  0.04840  0.51880  0.85565  1.0000
  P   P8        1.0  0.22061  0.24263  0.60930  1.0000
  O   O22       1.0  0.15090  0.19340  0.69305  1.0000
  O   O23       1.0  0.18810  0.27110  0.51285  1.0000
  O   O24       1.0  0.26550  0.19580  0.57520  1.0000
  N   N8        1.0  0.25520  0.36230  0.76340  1.0000
  H   H85       1.0  0.22740  0.37820  0.73550  1.0000
  C   C64       1.0  0.29740  0.33930  0.67925  1.0000
  H   H86       1.0  0.34050  0.33060  0.71240  1.0000
  H   H87       1.0  0.32450  0.38480  0.62725  1.0000
  C   C65       1.0  0.31340  0.43710  0.82955  1.0000
  H   H88       1.0  0.34180  0.41840  0.88050  1.0000
  C   C66       1.0  0.26200  0.46540  0.89725  1.0000
  H   H89       1.0  0.23340  0.48460  0.85000  1.0000
  H   H90       1.0  0.29900  0.51050  0.94450  1.0000
  H   H91       1.0  0.22130  0.41890  0.93970  1.0000
  C   C67       1.0  0.38160  0.50960  0.76530  1.0000
  C   C68       1.0  0.36130  0.54110  0.67365  1.0000
  H   H92       1.0  0.30500  0.51770  0.65355  1.0000
  C   C69       1.0  0.42270  0.60590  0.61245  1.0000
  H   H93       1.0  0.40780  0.62420  0.55040  1.0000
  C   C70       1.0  0.50590  0.64330  0.64340  1.0000
  H   H94       1.0  0.54720  0.68760  0.60320  1.0000
  C   C71       1.0  0.52760  0.61470  0.73385  1.0000
  H   H95       1.0  0.58390  0.63980  0.75475  1.0000
  C   C72       1.0  0.46570  0.54830  0.79440  1.0000
  H   H96       1.0  0.48120  0.52960  0.85565  1.0000
  P   P9        1.0  0.75737  0.97798  0.60930  1.0000
  O   O25       1.0  0.80660  0.95750  0.69305  1.0000
  O   O26       1.0  0.72890  0.91700  0.51285  1.0000
  O   O27       1.0  0.80420  0.06970  0.57520  1.0000
  N   N9        1.0  0.63770  0.89290  0.76340  1.0000
  H   H97       1.0  0.62180  0.84920  0.73550  1.0000
  C   C73       1.0  0.66070  0.95810  0.67925  1.0000
  H   H98       1.0  0.66940  0.00990  0.71240  1.0000
  H   H99       1.0  0.61520  0.93970  0.62725  1.0000
  C   C74       1.0  0.56290  0.87630  0.82955  1.0000
  H   H100      1.0  0.58160  0.92340  0.88050  1.0000
  C   C75       1.0  0.53460  0.79660  0.89725  1.0000
  H   H101      1.0  0.51540  0.74880  0.85000  1.0000
  H   H102      1.0  0.48950  0.78850  0.94450  1.0000
  H   H103      1.0  0.58110  0.80240  0.93970  1.0000
  C   C76       1.0  0.49040  0.87200  0.76530  1.0000
  C   C77       1.0  0.45890  0.82020  0.67365  1.0000
  H   H104      1.0  0.48230  0.78730  0.65355  1.0000
  C   C78       1.0  0.39410  0.81680  0.61245  1.0000
  H   H105      1.0  0.37580  0.78360  0.55040  1.0000
  C   C79       1.0  0.35670  0.86260  0.64340  1.0000
  H   H106      1.0  0.31240  0.85960  0.60320  1.0000
  C   C80       1.0  0.38530  0.91290  0.73385  1.0000
  H   H107      1.0  0.36020  0.94410  0.75475  1.0000
  C   C81       1.0  0.45170  0.91740  0.79440  1.0000
  H   H108      1.0  0.47040  0.95160  0.85565  1.0000
  C   C82       1.0  0.91290  0.52760  0.98385  1.0000
  H   H109      1.0  0.94410  0.58390  0.50475  1.0000
  C   C83       1.0  0.91740  0.46570  0.54440  1.0000
  H   H110      1.0  0.95160  0.48120  0.60565  1.0000
  P   P10       1.0  0.97798  0.22061  0.85930  1.0000
  O   O28       1.0  0.95750  0.15090  0.94305  1.0000
  O   O29       1.0  0.91700  0.18810  0.76285  1.0000
  O   O30       1.0  0.06970  0.26550  0.82520  1.0000
  N   N10       1.0  0.89290  0.25520  0.51340  1.0000
  H   H111      1.0  0.84920  0.22740  0.98550  1.0000
  C   C84       1.0  0.95810  0.29740  0.92925  1.0000
  H   H112      1.0  0.00990  0.34050  0.96240  1.0000
  H   H113      1.0  0.93970  0.32450  0.87725  1.0000
  C   C85       1.0  0.87630  0.31340  0.57955  1.0000
  H   H114      1.0  0.92340  0.34180  0.63050  1.0000
  C   C86       1.0  0.79660  0.26200  0.64725  1.0000
  H   H115      1.0  0.74880  0.23340  0.60000  1.0000
  H   H116      1.0  0.78850  0.29900  0.69450  1.0000
  H   H117      1.0  0.80240  0.22130  0.68970  1.0000
  C   C87       1.0  0.87200  0.38160  0.51530  1.0000
  C   C88       1.0  0.82020  0.36130  0.92365  1.0000
  H   H118      1.0  0.78730  0.30500  0.90355  1.0000
  C   C89       1.0  0.81680  0.42270  0.86245  1.0000
  H   H119      1.0  0.78360  0.40780  0.80040  1.0000
  C   C90       1.0  0.86260  0.50590  0.89340  1.0000
  H   H120      1.0  0.85960  0.54720  0.85320  1.0000
  P   P11       1.0  0.77939  0.75737  0.85930  1.0000
  O   O31       1.0  0.84910  0.80660  0.94305  1.0000
  O   O32       1.0  0.81190  0.72890  0.76285  1.0000
  O   O33       1.0  0.73450  0.80420  0.82520  1.0000
  N   N11       1.0  0.74480  0.63770  0.51340  1.0000
  H   H121      1.0  0.77260  0.62180  0.98550  1.0000
  C   C91       1.0  0.70260  0.66070  0.92925  1.0000
  H   H122      1.0  0.65950  0.66940  0.96240  1.0000
  H   H123      1.0  0.67550  0.61520  0.87725  1.0000
  C   C92       1.0  0.68660  0.56290  0.57955  1.0000
  H   H124      1.0  0.65820  0.58160  0.63050  1.0000
  C   C93       1.0  0.73800  0.53460  0.64725  1.0000
  H   H125      1.0  0.76660  0.51540  0.60000  1.0000
  H   H126      1.0  0.70100  0.48950  0.69450  1.0000
  H   H127      1.0  0.77870  0.58110  0.68970  1.0000
  C   C94       1.0  0.61840  0.49040  0.51530  1.0000
  C   C95       1.0  0.63870  0.45890  0.92365  1.0000
  H   H128      1.0  0.69500  0.48230  0.90355  1.0000
  C   C96       1.0  0.57730  0.39410  0.86245  1.0000
  H   H129      1.0  0.59220  0.37580  0.80040  1.0000
  C   C97       1.0  0.49410  0.35670  0.89340  1.0000
  H   H130      1.0  0.45280  0.31240  0.85320  1.0000
  C   C98       1.0  0.47240  0.38530  0.98385  1.0000
  H   H131      1.0  0.41610  0.36020  0.50475  1.0000
  C   C99       1.0  0.53430  0.45170  0.54440  1.0000
  H   H132      1.0  0.51880  0.47040  0.60565  1.0000
  P   P12       1.0  0.24263  0.02202  0.85930  1.0000
  O   O34       1.0  0.19340  0.04250  0.94305  1.0000
  O   O35       1.0  0.27110  0.08300  0.76285  1.0000
  O   O36       1.0  0.19580  0.93030  0.82520  1.0000
  N   N12       1.0  0.36230  0.10710  0.51340  1.0000
  H   H133      1.0  0.37820  0.15080  0.98550  1.0000
  C   C100      1.0  0.33930  0.04190  0.92925  1.0000
  H   H134      1.0  0.33060  0.99010  0.96240  1.0000
  H   H135      1.0  0.38480  0.06030  0.87725  1.0000
  C   C101      1.0  0.43710  0.12370  0.57955  1.0000
  H   H136      1.0  0.41840  0.07660  0.63050  1.0000
  C   C102      1.0  0.46540  0.20340  0.64725  1.0000
  H   H137      1.0  0.48460  0.25120  0.60000  1.0000
  H   H138      1.0  0.51050  0.21150  0.69450  1.0000
  H   H139      1.0  0.41890  0.19760  0.68970  1.0000
  C   C103      1.0  0.50960  0.12800  0.51530  1.0000
  C   C104      1.0  0.54110  0.17980  0.92365  1.0000
  H   H140      1.0  0.51770  0.21270  0.90355  1.0000
  C   C105      1.0  0.60590  0.18320  0.86245  1.0000
  H   H141      1.0  0.62420  0.21640  0.80040  1.0000
  C   C106      1.0  0.64330  0.13740  0.89340  1.0000
  H   H142      1.0  0.68760  0.14040  0.85320  1.0000
  C   C107      1.0  0.61470  0.08710  0.98385  1.0000
  H   H143      1.0  0.63980  0.05590  0.50475  1.0000
  C   C108      1.0  0.54830  0.08260  0.54440  1.0000
  H   H144      1.0  0.52960  0.04840  0.60565  1.0000
  Co  Co7       1.0  0.07214  0.83065  0.84879  1.0000
  Co  Co8       1.0  0.16935  0.24149  0.84879  1.0000
  Co  Co9       1.0  0.75851  0.92786  0.84879  1.0000
  Co  Co10      1.0  0.92786  0.16935  0.59879  1.0000
  Co  Co11      1.0  0.83065  0.75851  0.59879  1.0000
  Co  Co12      1.0  0.24149  0.07214  0.59879  1.0000
