data_AGEVAM_FSR
_audit_creation_date              2024-06-11
_audit_creation_method            'Materials Studio'
_symmetry_space_group_name_H-M    'P1'
_symmetry_Int_Tables_number       1
_symmetry_cell_setting            triclinic
loop_
_symmetry_equiv_pos_as_xyz
  x,y,z
_cell_length_a                    9.7821
_cell_length_b                    11.5740
_cell_length_c                    14.9180
_cell_angle_alpha                 90.0000
_cell_angle_beta                  95.6582
_cell_angle_gamma                 90.0000
loop_
_atom_site_label
_atom_site_type_symbol
_atom_site_fract_x
_atom_site_fract_y
_atom_site_fract_z
_atom_site_U_iso_or_equiv
_atom_site_adp_type
_atom_site_occupancy
Mn1    Mn    0.25254   0.37220   0.49422   0.00000  Uiso   1.00
O2     O     0.06412   0.38215   0.56402   0.00000  Uiso   1.00
O3     O     0.85542   0.46184   0.55089   0.00000  Uiso   1.00
O4     O     0.39682   0.46955   0.58626   0.00000  Uiso   1.00
O5     O     0.58904   0.57289   0.59011   0.00000  Uiso   1.00
O6     O     0.82330   0.10590   0.56935   0.00000  Uiso   1.00
O7     O     0.65850   0.29453   0.86768   0.00000  Uiso   1.00
C8     C     0.97580   0.45482   0.53357   0.00000  Uiso   1.00
C9     C     0.49630   0.51239   0.55122   0.00000  Uiso   1.00
C10    C     0.27270   0.10580   0.54920   0.00000  Uiso   1.00
H11    H     0.18590   0.09020   0.52060   0.00000  Uiso   1.00
C12    C     0.45230   0.19220   0.60600   0.00000  Uiso   1.00
H13    H     0.51390   0.25090   0.62410   0.00000  Uiso   1.00
C14    C     0.47690   0.07780   0.62019   0.00000  Uiso   1.00
C15    C     0.59510   0.00720   0.66147   0.00000  Uiso   1.00
H16    H     0.62590   0.95740   0.61530   0.00000  Uiso   1.00
H17    H     0.56210   0.95790   0.70730   0.00000  Uiso   1.00
C18    C     0.71860   0.07540   0.70411   0.00000  Uiso   1.00
H19    H     0.78920   0.01890   0.72510   0.00000  Uiso   1.00
C20    C     0.77940   0.15110   0.63468   0.00000  Uiso   1.00
C21    C     0.69180   0.25140   0.79774   0.00000  Uiso   1.00
C22    C     0.74400   0.32790   0.72633   0.00000  Uiso   1.00
H23    H     0.67010   0.38170   0.70570   0.00000  Uiso   1.00
C24    C     0.86790   0.40020   0.76664   0.00000  Uiso   1.00
H25    H     0.89470   0.45320   0.72110   0.00000  Uiso   1.00
H26    H     0.84030   0.44580   0.81640   0.00000  Uiso   1.00
C27    C     0.98810   0.32780   0.79931   0.00000  Uiso   1.00
C28    C     0.02550   0.28130   0.88152   0.00000  Uiso   1.00
H29    H     0.97800   0.29040   0.93210   0.00000  Uiso   1.00
C30    C     0.17760   0.22710   0.79565   0.00000  Uiso   1.00
H31    H     0.25430   0.19300   0.77450   0.00000  Uiso   1.00
N32    N     0.32430   0.20962   0.56118   0.00000  Uiso   1.00
N33    N     0.36020   0.02550   0.58320   0.00000  Uiso   1.00
H34    H     0.34530   0.95220   0.58200   0.00000  Uiso   1.00
N35    N     0.68440   0.13878   0.78285   0.00000  Uiso   1.00
H36    H     0.65550   0.09780   0.82530   0.00000  Uiso   1.00
N37    N     0.78070   0.26469   0.64840   0.00000  Uiso   1.00
H38    H     0.80690   0.30600   0.60530   0.00000  Uiso   1.00
N39    N     0.08570   0.29180   0.74556   0.00000  Uiso   1.00
H40    H     0.08750   0.30790   0.68940   0.00000  Uiso   1.00
N41    N     0.14480   0.21830   0.87874   0.00000  Uiso   1.00
Mn42   Mn    0.74746   0.87220   0.00578   0.00000  Uiso   1.00
O43    O     0.93588   0.88215   0.93598   0.00000  Uiso   1.00
O44    O     0.14458   0.96184   0.94911   0.00000  Uiso   1.00
O45    O     0.60318   0.96955   0.91374   0.00000  Uiso   1.00
O46    O     0.41096   0.07289   0.90989   0.00000  Uiso   1.00
O47    O     0.17670   0.60590   0.93065   0.00000  Uiso   1.00
O48    O     0.34150   0.79453   0.63232   0.00000  Uiso   1.00
C49    C     0.02420   0.95482   0.96643   0.00000  Uiso   1.00
C50    C     0.50370   0.01239   0.94878   0.00000  Uiso   1.00
C51    C     0.72730   0.60580   0.95080   0.00000  Uiso   1.00
H52    H     0.81410   0.59020   0.97940   0.00000  Uiso   1.00
C53    C     0.54770   0.69220   0.89400   0.00000  Uiso   1.00
H54    H     0.48610   0.75090   0.87590   0.00000  Uiso   1.00
C55    C     0.52310   0.57780   0.87981   0.00000  Uiso   1.00
C56    C     0.40490   0.50720   0.83853   0.00000  Uiso   1.00
H57    H     0.37410   0.45740   0.88470   0.00000  Uiso   1.00
H58    H     0.43790   0.45790   0.79270   0.00000  Uiso   1.00
C59    C     0.28140   0.57540   0.79589   0.00000  Uiso   1.00
H60    H     0.21080   0.51890   0.77490   0.00000  Uiso   1.00
C61    C     0.22060   0.65110   0.86532   0.00000  Uiso   1.00
C62    C     0.30820   0.75140   0.70226   0.00000  Uiso   1.00
C63    C     0.25600   0.82790   0.77367   0.00000  Uiso   1.00
H64    H     0.32990   0.88170   0.79430   0.00000  Uiso   1.00
C65    C     0.13210   0.90020   0.73336   0.00000  Uiso   1.00
H66    H     0.10530   0.95320   0.77890   0.00000  Uiso   1.00
H67    H     0.15970   0.94580   0.68360   0.00000  Uiso   1.00
C68    C     0.01190   0.82780   0.70069   0.00000  Uiso   1.00
C69    C     0.97450   0.78130   0.61848   0.00000  Uiso   1.00
H70    H     0.02200   0.79040   0.56790   0.00000  Uiso   1.00
C71    C     0.82240   0.72710   0.70435   0.00000  Uiso   1.00
H72    H     0.74570   0.69300   0.72550   0.00000  Uiso   1.00
N73    N     0.67570   0.70962   0.93882   0.00000  Uiso   1.00
N74    N     0.63980   0.52550   0.91680   0.00000  Uiso   1.00
H75    H     0.65470   0.45220   0.91800   0.00000  Uiso   1.00
N76    N     0.31560   0.63878   0.71715   0.00000  Uiso   1.00
H77    H     0.34450   0.59780   0.67470   0.00000  Uiso   1.00
N78    N     0.21930   0.76469   0.85160   0.00000  Uiso   1.00
H79    H     0.19310   0.80600   0.89470   0.00000  Uiso   1.00
N80    N     0.91430   0.79180   0.75444   0.00000  Uiso   1.00
H81    H     0.91250   0.80790   0.81060   0.00000  Uiso   1.00
N82    N     0.85520   0.71830   0.62126   0.00000  Uiso   1.00
Mn83   Mn    0.74746   0.62780   0.50578   0.00000  Uiso   1.00
O84    O     0.93588   0.61785   0.43598   0.00000  Uiso   1.00
O85    O     0.14458   0.53816   0.44911   0.00000  Uiso   1.00
O86    O     0.60318   0.53045   0.41374   0.00000  Uiso   1.00
O87    O     0.41096   0.42711   0.40989   0.00000  Uiso   1.00
O88    O     0.17670   0.89410   0.43065   0.00000  Uiso   1.00
O89    O     0.34150   0.70547   0.13232   0.00000  Uiso   1.00
C90    C     0.02420   0.54518   0.46643   0.00000  Uiso   1.00
C91    C     0.50370   0.48761   0.44878   0.00000  Uiso   1.00
C92    C     0.72730   0.89420   0.45080   0.00000  Uiso   1.00
H93    H     0.81410   0.90980   0.47940   0.00000  Uiso   1.00
C94    C     0.54770   0.80780   0.39400   0.00000  Uiso   1.00
H95    H     0.48610   0.74910   0.37590   0.00000  Uiso   1.00
C96    C     0.52310   0.92220   0.37981   0.00000  Uiso   1.00
C97    C     0.40490   0.99280   0.33853   0.00000  Uiso   1.00
H98    H     0.37410   0.04260   0.38470   0.00000  Uiso   1.00
H99    H     0.43790   0.04210   0.29270   0.00000  Uiso   1.00
C100   C     0.28140   0.92460   0.29589   0.00000  Uiso   1.00
H101   H     0.21080   0.98110   0.27490   0.00000  Uiso   1.00
C102   C     0.22060   0.84890   0.36532   0.00000  Uiso   1.00
C103   C     0.30820   0.74860   0.20226   0.00000  Uiso   1.00
C104   C     0.25600   0.67210   0.27367   0.00000  Uiso   1.00
H105   H     0.32990   0.61830   0.29430   0.00000  Uiso   1.00
C106   C     0.13210   0.59980   0.23336   0.00000  Uiso   1.00
H107   H     0.10530   0.54680   0.27890   0.00000  Uiso   1.00
H108   H     0.15970   0.55420   0.18360   0.00000  Uiso   1.00
C109   C     0.01190   0.67220   0.20069   0.00000  Uiso   1.00
C110   C     0.97450   0.71870   0.11848   0.00000  Uiso   1.00
H111   H     0.02200   0.70960   0.06790   0.00000  Uiso   1.00
C112   C     0.82240   0.77290   0.20435   0.00000  Uiso   1.00
H113   H     0.74570   0.80700   0.22550   0.00000  Uiso   1.00
N114   N     0.67570   0.79038   0.43882   0.00000  Uiso   1.00
N115   N     0.63980   0.97450   0.41680   0.00000  Uiso   1.00
H116   H     0.65470   0.04780   0.41800   0.00000  Uiso   1.00
N117   N     0.31560   0.86122   0.21715   0.00000  Uiso   1.00
H118   H     0.34450   0.90220   0.17470   0.00000  Uiso   1.00
N119   N     0.21930   0.73531   0.35160   0.00000  Uiso   1.00
H120   H     0.19310   0.69400   0.39470   0.00000  Uiso   1.00
N121   N     0.91430   0.70820   0.25444   0.00000  Uiso   1.00
H122   H     0.91250   0.69210   0.31060   0.00000  Uiso   1.00
N123   N     0.85520   0.78170   0.12126   0.00000  Uiso   1.00
Mn124  Mn    0.25254   0.12780   0.99422   0.00000  Uiso   1.00
O125   O     0.06412   0.11785   0.06402   0.00000  Uiso   1.00
O126   O     0.85542   0.03816   0.05089   0.00000  Uiso   1.00
O127   O     0.39682   0.03045   0.08626   0.00000  Uiso   1.00
O128   O     0.58904   0.92711   0.09011   0.00000  Uiso   1.00
O129   O     0.82330   0.39410   0.06935   0.00000  Uiso   1.00
O130   O     0.65850   0.20547   0.36768   0.00000  Uiso   1.00
C131   C     0.97580   0.04518   0.03357   0.00000  Uiso   1.00
C132   C     0.49630   0.98761   0.05122   0.00000  Uiso   1.00
C133   C     0.27270   0.39420   0.04920   0.00000  Uiso   1.00
H134   H     0.18590   0.40980   0.02060   0.00000  Uiso   1.00
C135   C     0.45230   0.30780   0.10600   0.00000  Uiso   1.00
H136   H     0.51390   0.24910   0.12410   0.00000  Uiso   1.00
C137   C     0.47690   0.42220   0.12019   0.00000  Uiso   1.00
C138   C     0.59510   0.49280   0.16147   0.00000  Uiso   1.00
H139   H     0.62590   0.54260   0.11530   0.00000  Uiso   1.00
H140   H     0.56210   0.54210   0.20730   0.00000  Uiso   1.00
C141   C     0.71860   0.42460   0.20411   0.00000  Uiso   1.00
H142   H     0.78920   0.48110   0.22510   0.00000  Uiso   1.00
C143   C     0.77940   0.34890   0.13468   0.00000  Uiso   1.00
C144   C     0.69180   0.24860   0.29774   0.00000  Uiso   1.00
C145   C     0.74400   0.17210   0.22633   0.00000  Uiso   1.00
H146   H     0.67010   0.11830   0.20570   0.00000  Uiso   1.00
C147   C     0.86790   0.09980   0.26664   0.00000  Uiso   1.00
H148   H     0.89470   0.04680   0.22110   0.00000  Uiso   1.00
H149   H     0.84030   0.05420   0.31640   0.00000  Uiso   1.00
C150   C     0.98810   0.17220   0.29931   0.00000  Uiso   1.00
C151   C     0.02550   0.21870   0.38152   0.00000  Uiso   1.00
H152   H     0.97800   0.20960   0.43210   0.00000  Uiso   1.00
C153   C     0.17760   0.27290   0.29565   0.00000  Uiso   1.00
H154   H     0.25430   0.30700   0.27450   0.00000  Uiso   1.00
N155   N     0.32430   0.29038   0.06118   0.00000  Uiso   1.00
N156   N     0.36020   0.47450   0.08320   0.00000  Uiso   1.00
H157   H     0.34530   0.54780   0.08200   0.00000  Uiso   1.00
N158   N     0.68440   0.36122   0.28285   0.00000  Uiso   1.00
H159   H     0.65550   0.40220   0.32530   0.00000  Uiso   1.00
N160   N     0.78070   0.23531   0.14840   0.00000  Uiso   1.00
H161   H     0.80690   0.19400   0.10530   0.00000  Uiso   1.00
N162   N     0.08570   0.20820   0.24556   0.00000  Uiso   1.00
H163   H     0.08750   0.19210   0.18940   0.00000  Uiso   1.00
N164   N     0.14480   0.28170   0.37874   0.00000  Uiso   1.00
loop_
_geom_bond_atom_site_label_1
_geom_bond_atom_site_label_2
_geom_bond_distance
_geom_bond_site_symmetry_2
_ccdc_geom_bond_type
Mn1    O2      2.208   .     S
Mn1    O4      2.183   .     S
Mn1    N32     2.212   .     S
Mn1    O85     2.262   .     S
Mn1    O87     2.185   .     S
Mn1    N164    2.195   .     S
O2     C8      1.258   1_455 S
O3     C8      1.233   .     S
O3     Mn83    2.262   .     S
O4     C9      1.252   .     S
O5     C9      1.243   .     S
O5     Mn83    2.185   .     S
O6     C20     1.221   .     S
O7     C21     1.229   .     S
C8     O2      1.258   1_655 S
C8     C90     1.554   1_655 S
C9     C91     1.564   .     S
C10    H11     0.930   .     S
C10    N33     1.330   .     S
C10    N32     1.309   .     S
C12    H13     0.930   .     S
C12    C14     1.359   .     S
C12    N32     1.375   .     S
C14    C15     1.498   .     S
C14    N33     1.360   .     S
C15    H16     0.969   1_545 S
C15    H17     0.970   1_545 S
C15    C18     1.528   .     S
H16    C15     0.969   1_565 S
H17    C15     0.970   1_565 S
C18    H19     0.980   .     S
C18    C20     1.522   .     S
C18    N35     1.452   .     S
C20    N37     1.330   .     S
C21    C22     1.512   .     S
C21    N35     1.323   .     S
C22    H23     0.980   .     S
C22    C24     1.545   .     S
C22    N37     1.448   .     S
C24    H25     0.970   .     S
C24    H26     0.971   .     S
C24    C27     1.486   .     S
C27    C28     1.356   1_655 S
C27    N39     1.371   1_655 S
C28    C27     1.356   1_455 S
C28    H29     0.930   1_455 S
C28    N41     1.380   .     S
H29    C28     0.930   1_655 S
C30    H31     0.930   .     S
C30    N39     1.340   .     S
C30    N41     1.315   .     S
N33    H34     0.861   1_545 S
H34    N33     0.861   1_565 S
N35    H36     0.861   .     S
N37    H38     0.860   .     S
N39    C27     1.371   1_455 S
N39    H40     0.860   .     S
N41    Mn124   2.195   .     S
Mn42   O43     2.208   1_554 S
Mn42   O45     2.183   1_554 S
Mn42   N73     2.212   1_554 S
Mn42   O126    2.262   1_565 S
Mn42   O128    2.185   .     S
Mn42   N123    2.195   .     S
O43    Mn42    2.208   1_556 S
O43    C49     1.258   1_655 S
O44    C49     1.233   .     S
O44    Mn124   2.262   1_565 S
O45    Mn42    2.183   1_556 S
O45    C50     1.252   1_565 S
O46    C50     1.243   .     S
O46    Mn124   2.185   .     S
O47    C61     1.221   .     S
O48    C62     1.229   .     S
C49    O43     1.258   1_455 S
C49    C131    1.554   1_466 S
C50    O45     1.252   1_545 S
C50    C132    1.564   1_546 S
C51    H52     0.930   .     S
C51    N74     1.330   .     S
C51    N73     1.309   .     S
C53    H54     0.930   .     S
C53    C55     1.359   .     S
C53    N73     1.375   .     S
C55    C56     1.498   .     S
C55    N74     1.360   .     S
C56    H57     0.969   .     S
C56    H58     0.970   .     S
C56    C59     1.528   .     S
C59    H60     0.980   .     S
C59    C61     1.522   .     S
C59    N76     1.452   .     S
C61    N78     1.330   .     S
C62    C63     1.512   .     S
C62    N76     1.323   .     S
C63    H64     0.980   .     S
C63    C65     1.545   .     S
C63    N78     1.448   .     S
C65    H66     0.970   .     S
C65    H67     0.971   .     S
C65    C68     1.486   .     S
C68    C69     1.356   1_455 S
C68    N80     1.371   1_455 S
C69    C68     1.356   1_655 S
C69    H70     0.930   1_655 S
C69    N82     1.380   .     S
H70    C69     0.930   1_455 S
C71    H72     0.930   .     S
C71    N80     1.340   .     S
C71    N82     1.315   .     S
N73    Mn42    2.212   1_556 S
N74    H75     0.861   .     S
N76    H77     0.861   .     S
N78    H79     0.860   .     S
N80    C68     1.371   1_655 S
N80    H81     0.860   .     S
N82    Mn83    2.195   .     S
Mn83   O84     2.208   .     S
Mn83   O86     2.183   .     S
Mn83   N114    2.212   .     S
O84    C90     1.258   1_655 S
O85    C90     1.233   .     S
O86    C91     1.252   .     S
O87    C91     1.243   .     S
O88    C102    1.221   .     S
O89    C103    1.229   .     S
C90    O84     1.258   1_455 S
C90    C8      1.554   1_455 S
C92    H93     0.930   .     S
C92    N115    1.330   .     S
C92    N114    1.309   .     S
C94    H95     0.930   .     S
C94    C96     1.359   .     S
C94    N114    1.375   .     S
C96    C97     1.498   .     S
C96    N115    1.360   .     S
C97    H98     0.969   1_565 S
C97    H99     0.970   1_565 S
C97    C100    1.528   .     S
H98    C97     0.969   1_545 S
H99    C97     0.970   1_545 S
C100   H101    0.980   .     S
C100   C102    1.522   .     S
C100   N117    1.452   .     S
C102   N119    1.330   .     S
C103   C104    1.512   .     S
C103   N117    1.323   .     S
C104   H105    0.980   .     S
C104   C106    1.545   .     S
C104   N119    1.448   .     S
C106   H107    0.970   .     S
C106   H108    0.971   .     S
C106   C109    1.486   .     S
C109   C110    1.356   1_455 S
C109   N121    1.371   1_455 S
C110   C109    1.356   1_655 S
C110   H111    0.930   1_655 S
C110   N123    1.380   .     S
H111   C110    0.930   1_455 S
C112   H113    0.930   .     S
C112   N121    1.340   .     S
C112   N123    1.315   .     S
N115   H116    0.861   1_565 S
H116   N115    0.861   1_545 S
N117   H118    0.861   .     S
N119   H120    0.860   .     S
N121   C109    1.371   1_655 S
N121   H122    0.860   .     S
Mn124  O125    2.208   1_556 S
Mn124  O127    2.183   1_556 S
Mn124  N155    2.212   1_556 S
Mn124  O44     2.262   1_545 S
O125   Mn124   2.208   1_554 S
O125   C131    1.258   1_455 S
O126   C131    1.233   .     S
O126   Mn42    2.262   1_545 S
O127   Mn124   2.183   1_554 S
O127   C132    1.252   1_545 S
O128   C132    1.243   .     S
O129   C143    1.221   .     S
O130   C144    1.229   .     S
C131   O125    1.258   1_655 S
C131   C49     1.554   1_644 S
C132   O127    1.252   1_565 S
C132   C50     1.564   1_564 S
C133   H134    0.930   .     S
C133   N156    1.330   .     S
C133   N155    1.309   .     S
C135   H136    0.930   .     S
C135   C137    1.359   .     S
C135   N155    1.375   .     S
C137   C138    1.498   .     S
C137   N156    1.360   .     S
C138   H139    0.969   .     S
C138   H140    0.970   .     S
C138   C141    1.528   .     S
C141   H142    0.980   .     S
C141   C143    1.522   .     S
C141   N158    1.452   .     S
C143   N160    1.330   .     S
C144   C145    1.512   .     S
C144   N158    1.323   .     S
C145   H146    0.980   .     S
C145   C147    1.545   .     S
C145   N160    1.448   .     S
C147   H148    0.970   .     S
C147   H149    0.971   .     S
C147   C150    1.486   .     S
C150   C151    1.356   1_655 S
C150   N162    1.371   1_655 S
C151   C150    1.356   1_455 S
C151   H152    0.930   1_455 S
C151   N164    1.380   .     S
H152   C151    0.930   1_655 S
C153   H154    0.930   .     S
C153   N162    1.340   .     S
C153   N164    1.315   .     S
N155   Mn124   2.212   1_554 S
N156   H157    0.861   .     S
N158   H159    0.861   .     S
N160   H161    0.860   .     S
N162   C150    1.371   1_455 S
N162   H163    0.860   .     S
