data_AJAKON_FSR
_audit_creation_date              2024-06-11
_audit_creation_method            'Materials Studio'
_symmetry_space_group_name_H-M    'P1'
_symmetry_Int_Tables_number       1
_symmetry_cell_setting            triclinic
loop_
_symmetry_equiv_pos_as_xyz
  x,y,z
_cell_length_a                    14.4144
_cell_length_b                    23.3964
_cell_length_c                    15.5641
_cell_angle_alpha                 90.0000
_cell_angle_beta                  107.6320
_cell_angle_gamma                 90.0000
loop_
_atom_site_label
_atom_site_type_symbol
_atom_site_fract_x
_atom_site_fract_y
_atom_site_fract_z
_atom_site_U_iso_or_equiv
_atom_site_adp_type
_atom_site_occupancy
Cd1    Cd    0.24684   0.44474   0.58252   0.00000  Uiso   1.00
Cd2    Cd    0.27371   0.30844   0.69252   0.00000  Uiso   1.00
O3     O     0.41290   0.43560   0.60010   0.00000  Uiso   1.00
O4     O     0.33750   0.35230   0.59120   0.00000  Uiso   1.00
C5     C     0.41610   0.38220   0.60470   0.00000  Uiso   1.00
C6     C     0.51030   0.35240   0.62520   0.00000  Uiso   1.00
C7     C     0.68920   0.29700   0.67260   0.00000  Uiso   1.00
C8     C     0.60400   0.26630   0.63610   0.00000  Uiso   1.00
H9     H     0.60660   0.22730   0.62560   0.00000  Uiso   1.00
C10    C     0.51510   0.29390   0.61520   0.00000  Uiso   1.00
H11    H     0.45790   0.27290   0.59410   0.00000  Uiso   1.00
C12    C     0.59710   0.38340   0.65710   0.00000  Uiso   1.00
H13    H     0.59520   0.42300   0.66200   0.00000  Uiso   1.00
C14    C     0.68550   0.35540   0.68140   0.00000  Uiso   1.00
H15    H     0.74280   0.37610   0.70380   0.00000  Uiso   1.00
O16    O     0.16000   0.38100   0.63230   0.00000  Uiso   1.00
N17    N     0.78230   0.26880   0.69840   0.00000  Uiso   1.00
C18    C     0.73450   0.20160   0.79670   0.00000  Uiso   1.00
H19    H     0.69320   0.22900   0.80850   0.00000  Uiso   1.00
C20    C     0.79400   0.21550   0.74150   0.00000  Uiso   1.00
O21    O     0.04510   0.40720   0.50930   0.00000  Uiso   1.00
O22    O     0.18680   0.22300   0.70990   0.00000  Uiso   1.00
O23    O     0.16660   0.25850   0.57610   0.00000  Uiso   1.00
C24    C     0.99940   0.34790   0.61260   0.00000  Uiso   1.00
C25    C     0.07020   0.38060   0.58060   0.00000  Uiso   1.00
C26    C     0.06300   0.18100   0.58910   0.00000  Uiso   1.00
C27    C     0.02070   0.32780   0.70060   0.00000  Uiso   1.00
H28    H     0.08310   0.33230   0.74040   0.00000  Uiso   1.00
C29    C     0.73830   0.14810   0.83220   0.00000  Uiso   1.00
H30    H     0.69520   0.13820   0.86380   0.00000  Uiso   1.00
C31    C     0.14410   0.22290   0.62870   0.00000  Uiso   1.00
N32    N     0.85360   0.05580   0.46480   0.00000  Uiso   1.00
C33    C     0.81720   0.01750   0.51930   0.00000  Uiso   1.00
C34    C     0.84030   0.00660   0.20010   0.00000  Uiso   1.00
C35    C     0.76790   0.01080   0.32150   0.00000  Uiso   1.00
H36    H     0.71600   0.00290   0.34340   0.00000  Uiso   1.00
C37    C     0.94960   0.30090   0.72930   0.00000  Uiso   1.00
H38    H     0.96400   0.28770   0.78820   0.00000  Uiso   1.00
C39    C     0.91870   0.03710   0.25370   0.00000  Uiso   1.00
H40    H     0.96880   0.04730   0.23070   0.00000  Uiso   1.00
C41    C     0.05690   0.13090   0.63290   0.00000  Uiso   1.00
H42    H     0.10030   0.12410   0.68980   0.00000  Uiso   1.00
C43    C     0.98630   0.08980   0.59330   0.00000  Uiso   1.00
H44    H     0.98350   0.05590   0.62350   0.00000  Uiso   1.00
C45    C     0.77380   0.03980   0.57990   0.00000  Uiso   1.00
H46    H     0.76730   0.07910   0.58460   0.00000  Uiso   1.00
C47    C     0.86200   0.17630   0.73170   0.00000  Uiso   1.00
H48    H     0.90240   0.18520   0.69700   0.00000  Uiso   1.00
C49    C     0.82700   0.95900   0.51110   0.00000  Uiso   1.00
H50    H     0.85630   0.94430   0.47020   0.00000  Uiso   1.00
C51    C     0.84950   0.04030   0.37490   0.00000  Uiso   1.00
C52    C     0.92100   0.09960   0.50970   0.00000  Uiso   1.00
C53    C     0.92420   0.05280   0.34020   0.00000  Uiso   1.00
H54    H     0.97900   0.07210   0.37560   0.00000  Uiso   1.00
C55    C     0.86960   0.12340   0.77440   0.00000  Uiso   1.00
H56    H     0.91800   0.09800   0.77110   0.00000  Uiso   1.00
C57    C     0.83670   0.31270   0.57990   0.00000  Uiso   1.00
H58    H     0.77540   0.30670   0.53890   0.00000  Uiso   1.00
C59    C     0.74790   0.94490   0.62810   0.00000  Uiso   1.00
C60    C     0.99500   0.19140   0.50560   0.00000  Uiso   1.00
H61    H     0.99810   0.22530   0.47550   0.00000  Uiso   1.00
C62    C     0.85720   0.29380   0.66970   0.00000  Uiso   1.00
C63    C     0.76520   0.99360   0.23590   0.00000  Uiso   1.00
H64    H     0.71200   0.97280   0.20130   0.00000  Uiso   1.00
C65    C     0.73970   0.00250   0.63430   0.00000  Uiso   1.00
H66    H     0.71080   0.01760   0.67530   0.00000  Uiso   1.00
C67    C     0.79230   0.92260   0.56550   0.00000  Uiso   1.00
H68    H     0.79840   0.88320   0.56060   0.00000  Uiso   1.00
C69    C     0.90650   0.33950   0.55400   0.00000  Uiso   1.00
H70    H     0.89190   0.35260   0.49500   0.00000  Uiso   1.00
C71    C     0.92160   0.15140   0.46630   0.00000  Uiso   1.00
H72    H     0.87420   0.15950   0.41210   0.00000  Uiso   1.00
C73    C     0.80530   0.10800   0.82210   0.00000  Uiso   1.00
C74    C     0.83560   0.99030   0.10780   0.00000  Uiso   1.00
O75    O     0.67530   0.92610   0.74280   0.00000  Uiso   1.00
C76    C     0.71690   0.90600   0.68930   0.00000  Uiso   1.00
O77    O     0.77550   0.95200   0.06660   0.00000  Uiso   1.00
O78    O     0.89400   0.01650   0.07310   0.00000  Uiso   1.00
C79    C     0.80680   0.04960   0.86050   0.00000  Uiso   1.00
O80    O     0.73130   0.85250   0.68190   0.00000  Uiso   1.00
O81    O     0.87780   0.01670   0.86860   0.00000  Uiso   1.00
O82    O     0.73140   0.03510   0.87850   0.00000  Uiso   1.00
O83    O     0.41170   0.25960   0.76400   0.00000  Uiso   1.00
Cd84   Cd    0.75316   0.94474   0.91748   0.00000  Uiso   1.00
Cd85   Cd    0.72629   0.80844   0.80748   0.00000  Uiso   1.00
O86    O     0.58710   0.93560   0.89990   0.00000  Uiso   1.00
O87    O     0.66250   0.85230   0.90880   0.00000  Uiso   1.00
C88    C     0.58390   0.88220   0.89530   0.00000  Uiso   1.00
C89    C     0.48970   0.85240   0.87480   0.00000  Uiso   1.00
C90    C     0.31080   0.79700   0.82740   0.00000  Uiso   1.00
C91    C     0.39600   0.76630   0.86390   0.00000  Uiso   1.00
H92    H     0.39340   0.72730   0.87440   0.00000  Uiso   1.00
C93    C     0.48490   0.79390   0.88480   0.00000  Uiso   1.00
H94    H     0.54210   0.77290   0.90590   0.00000  Uiso   1.00
C95    C     0.40290   0.88340   0.84290   0.00000  Uiso   1.00
H96    H     0.40480   0.92300   0.83800   0.00000  Uiso   1.00
C97    C     0.31450   0.85540   0.81860   0.00000  Uiso   1.00
H98    H     0.25720   0.87610   0.79620   0.00000  Uiso   1.00
O99    O     0.84000   0.88100   0.86770   0.00000  Uiso   1.00
N100   N     0.21770   0.76880   0.80160   0.00000  Uiso   1.00
C101   C     0.26550   0.70160   0.70330   0.00000  Uiso   1.00
H102   H     0.30680   0.72900   0.69150   0.00000  Uiso   1.00
C103   C     0.20600   0.71550   0.75850   0.00000  Uiso   1.00
O104   O     0.95490   0.90720   0.99070   0.00000  Uiso   1.00
O105   O     0.81320   0.72300   0.79010   0.00000  Uiso   1.00
O106   O     0.83340   0.75850   0.92390   0.00000  Uiso   1.00
C107   C     0.00060   0.84790   0.88740   0.00000  Uiso   1.00
C108   C     0.92980   0.88060   0.91940   0.00000  Uiso   1.00
C109   C     0.93700   0.68100   0.91090   0.00000  Uiso   1.00
C110   C     0.97930   0.82780   0.79940   0.00000  Uiso   1.00
H111   H     0.91690   0.83230   0.75960   0.00000  Uiso   1.00
C112   C     0.26170   0.64810   0.66780   0.00000  Uiso   1.00
H113   H     0.30480   0.63820   0.63620   0.00000  Uiso   1.00
C114   C     0.85590   0.72290   0.87130   0.00000  Uiso   1.00
N115   N     0.14640   0.55580   0.03520   0.00000  Uiso   1.00
C116   C     0.18280   0.51750   0.98070   0.00000  Uiso   1.00
C117   C     0.15970   0.50660   0.29990   0.00000  Uiso   1.00
C118   C     0.23210   0.51080   0.17850   0.00000  Uiso   1.00
H119   H     0.28400   0.50290   0.15660   0.00000  Uiso   1.00
C120   C     0.05040   0.80090   0.77070   0.00000  Uiso   1.00
H121   H     0.03600   0.78770   0.71180   0.00000  Uiso   1.00
C122   C     0.08130   0.53710   0.24630   0.00000  Uiso   1.00
H123   H     0.03120   0.54730   0.26930   0.00000  Uiso   1.00
C124   C     0.94310   0.63090   0.86710   0.00000  Uiso   1.00
H125   H     0.89970   0.62410   0.81020   0.00000  Uiso   1.00
C126   C     0.01370   0.58980   0.90670   0.00000  Uiso   1.00
H127   H     0.01650   0.55590   0.87650   0.00000  Uiso   1.00
C128   C     0.22620   0.53980   0.92010   0.00000  Uiso   1.00
H129   H     0.23270   0.57910   0.91540   0.00000  Uiso   1.00
C130   C     0.13800   0.67630   0.76830   0.00000  Uiso   1.00
H131   H     0.09760   0.68520   0.80300   0.00000  Uiso   1.00
C132   C     0.17300   0.45900   0.98890   0.00000  Uiso   1.00
H133   H     0.14370   0.44430   0.02980   0.00000  Uiso   1.00
C134   C     0.15050   0.54030   0.12510   0.00000  Uiso   1.00
C135   C     0.07900   0.59960   0.99030   0.00000  Uiso   1.00
C136   C     0.07580   0.55280   0.15980   0.00000  Uiso   1.00
H137   H     0.02100   0.57210   0.12440   0.00000  Uiso   1.00
C138   C     0.13040   0.62340   0.72560   0.00000  Uiso   1.00
H139   H     0.08200   0.59800   0.72890   0.00000  Uiso   1.00
C140   C     0.16330   0.81270   0.92010   0.00000  Uiso   1.00
H141   H     0.22460   0.80670   0.96110   0.00000  Uiso   1.00
C142   C     0.25210   0.44490   0.87190   0.00000  Uiso   1.00
C143   C     0.00500   0.69140   0.99440   0.00000  Uiso   1.00
H144   H     0.00190   0.72530   0.02450   0.00000  Uiso   1.00
C145   C     0.14280   0.79380   0.83030   0.00000  Uiso   1.00
C146   C     0.23480   0.49360   0.26410   0.00000  Uiso   1.00
H147   H     0.28800   0.47280   0.29870   0.00000  Uiso   1.00
C148   C     0.26030   0.50250   0.86570   0.00000  Uiso   1.00
H149   H     0.28920   0.51760   0.82470   0.00000  Uiso   1.00
C150   C     0.20770   0.42260   0.93450   0.00000  Uiso   1.00
H151   H     0.20160   0.38320   0.93940   0.00000  Uiso   1.00
C152   C     0.09350   0.83950   0.94600   0.00000  Uiso   1.00
H153   H     0.10810   0.85260   0.00500   0.00000  Uiso   1.00
C154   C     0.07840   0.65140   0.03370   0.00000  Uiso   1.00
H155   H     0.12580   0.65950   0.08790   0.00000  Uiso   1.00
C156   C     0.19470   0.60800   0.67790   0.00000  Uiso   1.00
C157   C     0.16440   0.49030   0.39220   0.00000  Uiso   1.00
O158   O     0.32470   0.42610   0.75720   0.00000  Uiso   1.00
C159   C     0.28310   0.40600   0.81070   0.00000  Uiso   1.00
O160   O     0.22450   0.45200   0.43340   0.00000  Uiso   1.00
O161   O     0.10600   0.51650   0.42690   0.00000  Uiso   1.00
C162   C     0.19320   0.54960   0.63950   0.00000  Uiso   1.00
O163   O     0.26870   0.35250   0.81810   0.00000  Uiso   1.00
O164   O     0.12220   0.51670   0.63140   0.00000  Uiso   1.00
O165   O     0.26860   0.53510   0.62150   0.00000  Uiso   1.00
O166   O     0.58830   0.75960   0.73600   0.00000  Uiso   1.00
Cd167  Cd    0.75316   0.55526   0.41748   0.00000  Uiso   1.00
Cd168  Cd    0.72629   0.69156   0.30748   0.00000  Uiso   1.00
O169   O     0.58710   0.56440   0.39990   0.00000  Uiso   1.00
O170   O     0.66250   0.64770   0.40880   0.00000  Uiso   1.00
C171   C     0.58390   0.61780   0.39530   0.00000  Uiso   1.00
C172   C     0.48970   0.64760   0.37480   0.00000  Uiso   1.00
C173   C     0.31080   0.70300   0.32740   0.00000  Uiso   1.00
C174   C     0.39600   0.73370   0.36390   0.00000  Uiso   1.00
H175   H     0.39340   0.77270   0.37440   0.00000  Uiso   1.00
C176   C     0.48490   0.70610   0.38480   0.00000  Uiso   1.00
H177   H     0.54210   0.72710   0.40590   0.00000  Uiso   1.00
C178   C     0.40290   0.61660   0.34290   0.00000  Uiso   1.00
H179   H     0.40480   0.57700   0.33800   0.00000  Uiso   1.00
C180   C     0.31450   0.64460   0.31860   0.00000  Uiso   1.00
H181   H     0.25720   0.62390   0.29620   0.00000  Uiso   1.00
O182   O     0.84000   0.61900   0.36770   0.00000  Uiso   1.00
N183   N     0.21770   0.73120   0.30160   0.00000  Uiso   1.00
C184   C     0.26550   0.79840   0.20330   0.00000  Uiso   1.00
H185   H     0.30680   0.77100   0.19150   0.00000  Uiso   1.00
C186   C     0.20600   0.78450   0.25850   0.00000  Uiso   1.00
O187   O     0.95490   0.59280   0.49070   0.00000  Uiso   1.00
O188   O     0.81320   0.77700   0.29010   0.00000  Uiso   1.00
O189   O     0.83340   0.74150   0.42390   0.00000  Uiso   1.00
C190   C     0.00060   0.65210   0.38740   0.00000  Uiso   1.00
C191   C     0.92980   0.61940   0.41940   0.00000  Uiso   1.00
C192   C     0.93700   0.81900   0.41090   0.00000  Uiso   1.00
C193   C     0.97930   0.67220   0.29940   0.00000  Uiso   1.00
H194   H     0.91690   0.66770   0.25960   0.00000  Uiso   1.00
C195   C     0.26170   0.85190   0.16780   0.00000  Uiso   1.00
H196   H     0.30480   0.86180   0.13620   0.00000  Uiso   1.00
C197   C     0.85590   0.77710   0.37130   0.00000  Uiso   1.00
N198   N     0.14640   0.94420   0.53520   0.00000  Uiso   1.00
C199   C     0.18280   0.98250   0.48070   0.00000  Uiso   1.00
C200   C     0.15970   0.99340   0.79990   0.00000  Uiso   1.00
C201   C     0.23210   0.98920   0.67850   0.00000  Uiso   1.00
H202   H     0.28400   0.99710   0.65660   0.00000  Uiso   1.00
C203   C     0.05040   0.69910   0.27070   0.00000  Uiso   1.00
H204   H     0.03600   0.71230   0.21180   0.00000  Uiso   1.00
C205   C     0.08130   0.96290   0.74630   0.00000  Uiso   1.00
H206   H     0.03120   0.95270   0.76930   0.00000  Uiso   1.00
C207   C     0.94310   0.86910   0.36710   0.00000  Uiso   1.00
H208   H     0.89970   0.87590   0.31020   0.00000  Uiso   1.00
C209   C     0.01370   0.91020   0.40670   0.00000  Uiso   1.00
H210   H     0.01650   0.94410   0.37650   0.00000  Uiso   1.00
C211   C     0.22620   0.96020   0.42010   0.00000  Uiso   1.00
H212   H     0.23270   0.92090   0.41540   0.00000  Uiso   1.00
C213   C     0.13800   0.82370   0.26830   0.00000  Uiso   1.00
H214   H     0.09760   0.81480   0.30300   0.00000  Uiso   1.00
C215   C     0.17300   0.04100   0.48890   0.00000  Uiso   1.00
H216   H     0.14370   0.05570   0.52980   0.00000  Uiso   1.00
C217   C     0.15050   0.95970   0.62510   0.00000  Uiso   1.00
C218   C     0.07900   0.90040   0.49030   0.00000  Uiso   1.00
C219   C     0.07580   0.94720   0.65980   0.00000  Uiso   1.00
H220   H     0.02100   0.92790   0.62440   0.00000  Uiso   1.00
C221   C     0.13040   0.87660   0.22560   0.00000  Uiso   1.00
H222   H     0.08200   0.90200   0.22890   0.00000  Uiso   1.00
C223   C     0.16330   0.68730   0.42010   0.00000  Uiso   1.00
H224   H     0.22460   0.69330   0.46110   0.00000  Uiso   1.00
C225   C     0.25210   0.05510   0.37190   0.00000  Uiso   1.00
C226   C     0.00500   0.80860   0.49440   0.00000  Uiso   1.00
H227   H     0.00190   0.77470   0.52450   0.00000  Uiso   1.00
C228   C     0.14280   0.70620   0.33030   0.00000  Uiso   1.00
C229   C     0.23480   0.00640   0.76410   0.00000  Uiso   1.00
H230   H     0.28800   0.02720   0.79870   0.00000  Uiso   1.00
C231   C     0.26030   0.99750   0.36570   0.00000  Uiso   1.00
H232   H     0.28920   0.98240   0.32470   0.00000  Uiso   1.00
C233   C     0.20770   0.07740   0.43450   0.00000  Uiso   1.00
H234   H     0.20160   0.11680   0.43940   0.00000  Uiso   1.00
C235   C     0.09350   0.66050   0.44600   0.00000  Uiso   1.00
H236   H     0.10810   0.64740   0.50500   0.00000  Uiso   1.00
C237   C     0.07840   0.84860   0.53370   0.00000  Uiso   1.00
H238   H     0.12580   0.84050   0.58790   0.00000  Uiso   1.00
C239   C     0.19470   0.89200   0.17790   0.00000  Uiso   1.00
C240   C     0.16440   0.00970   0.89220   0.00000  Uiso   1.00
O241   O     0.32470   0.07390   0.25720   0.00000  Uiso   1.00
C242   C     0.28310   0.09400   0.31070   0.00000  Uiso   1.00
O243   O     0.22450   0.04800   0.93340   0.00000  Uiso   1.00
O244   O     0.10600   0.98350   0.92690   0.00000  Uiso   1.00
C245   C     0.19320   0.95040   0.13950   0.00000  Uiso   1.00
O246   O     0.26870   0.14750   0.31810   0.00000  Uiso   1.00
O247   O     0.12220   0.98330   0.13140   0.00000  Uiso   1.00
O248   O     0.26860   0.96490   0.12150   0.00000  Uiso   1.00
O249   O     0.58830   0.74040   0.23600   0.00000  Uiso   1.00
Cd250  Cd    0.24684   0.05526   0.08252   0.00000  Uiso   1.00
Cd251  Cd    0.27371   0.19156   0.19252   0.00000  Uiso   1.00
O252   O     0.41290   0.06440   0.10010   0.00000  Uiso   1.00
O253   O     0.33750   0.14770   0.09120   0.00000  Uiso   1.00
C254   C     0.41610   0.11780   0.10470   0.00000  Uiso   1.00
C255   C     0.51030   0.14760   0.12520   0.00000  Uiso   1.00
C256   C     0.68920   0.20300   0.17260   0.00000  Uiso   1.00
C257   C     0.60400   0.23370   0.13610   0.00000  Uiso   1.00
H258   H     0.60660   0.27270   0.12560   0.00000  Uiso   1.00
C259   C     0.51510   0.20610   0.11520   0.00000  Uiso   1.00
H260   H     0.45790   0.22710   0.09410   0.00000  Uiso   1.00
C261   C     0.59710   0.11660   0.15710   0.00000  Uiso   1.00
H262   H     0.59520   0.07700   0.16200   0.00000  Uiso   1.00
C263   C     0.68550   0.14460   0.18140   0.00000  Uiso   1.00
H264   H     0.74280   0.12390   0.20380   0.00000  Uiso   1.00
O265   O     0.16000   0.11900   0.13230   0.00000  Uiso   1.00
N266   N     0.78230   0.23120   0.19840   0.00000  Uiso   1.00
C267   C     0.73450   0.29840   0.29670   0.00000  Uiso   1.00
H268   H     0.69320   0.27100   0.30850   0.00000  Uiso   1.00
C269   C     0.79400   0.28450   0.24150   0.00000  Uiso   1.00
O270   O     0.04510   0.09280   0.00930   0.00000  Uiso   1.00
O271   O     0.18680   0.27700   0.20990   0.00000  Uiso   1.00
O272   O     0.16660   0.24150   0.07610   0.00000  Uiso   1.00
C273   C     0.99940   0.15210   0.11260   0.00000  Uiso   1.00
C274   C     0.07020   0.11940   0.08060   0.00000  Uiso   1.00
C275   C     0.06300   0.31900   0.08910   0.00000  Uiso   1.00
C276   C     0.02070   0.17220   0.20060   0.00000  Uiso   1.00
H277   H     0.08310   0.16770   0.24040   0.00000  Uiso   1.00
C278   C     0.73830   0.35190   0.33220   0.00000  Uiso   1.00
H279   H     0.69520   0.36180   0.36380   0.00000  Uiso   1.00
C280   C     0.14410   0.27710   0.12870   0.00000  Uiso   1.00
N281   N     0.85360   0.44420   0.96480   0.00000  Uiso   1.00
C282   C     0.81720   0.48250   0.01930   0.00000  Uiso   1.00
C283   C     0.84030   0.49340   0.70010   0.00000  Uiso   1.00
C284   C     0.76790   0.48920   0.82150   0.00000  Uiso   1.00
H285   H     0.71600   0.49710   0.84340   0.00000  Uiso   1.00
C286   C     0.94960   0.19910   0.22930   0.00000  Uiso   1.00
H287   H     0.96400   0.21230   0.28820   0.00000  Uiso   1.00
C288   C     0.91870   0.46290   0.75370   0.00000  Uiso   1.00
H289   H     0.96880   0.45270   0.73070   0.00000  Uiso   1.00
C290   C     0.05690   0.36910   0.13290   0.00000  Uiso   1.00
H291   H     0.10030   0.37590   0.18980   0.00000  Uiso   1.00
C292   C     0.98630   0.41020   0.09330   0.00000  Uiso   1.00
H293   H     0.98350   0.44410   0.12350   0.00000  Uiso   1.00
C294   C     0.77380   0.46020   0.07990   0.00000  Uiso   1.00
H295   H     0.76730   0.42090   0.08460   0.00000  Uiso   1.00
C296   C     0.86200   0.32370   0.23170   0.00000  Uiso   1.00
H297   H     0.90240   0.31480   0.19700   0.00000  Uiso   1.00
C298   C     0.82700   0.54100   0.01110   0.00000  Uiso   1.00
H299   H     0.85630   0.55570   0.97020   0.00000  Uiso   1.00
C300   C     0.84950   0.45970   0.87490   0.00000  Uiso   1.00
C301   C     0.92100   0.40040   0.00970   0.00000  Uiso   1.00
C302   C     0.92420   0.44720   0.84020   0.00000  Uiso   1.00
H303   H     0.97900   0.42790   0.87560   0.00000  Uiso   1.00
C304   C     0.86960   0.37660   0.27440   0.00000  Uiso   1.00
H305   H     0.91800   0.40200   0.27110   0.00000  Uiso   1.00
C306   C     0.83670   0.18730   0.07990   0.00000  Uiso   1.00
H307   H     0.77540   0.19330   0.03890   0.00000  Uiso   1.00
C308   C     0.74790   0.55510   0.12810   0.00000  Uiso   1.00
C309   C     0.99500   0.30860   0.00560   0.00000  Uiso   1.00
H310   H     0.99810   0.27470   0.97550   0.00000  Uiso   1.00
C311   C     0.85720   0.20620   0.16970   0.00000  Uiso   1.00
C312   C     0.76520   0.50640   0.73590   0.00000  Uiso   1.00
H313   H     0.71200   0.52720   0.70130   0.00000  Uiso   1.00
C314   C     0.73970   0.49750   0.13430   0.00000  Uiso   1.00
H315   H     0.71080   0.48240   0.17530   0.00000  Uiso   1.00
C316   C     0.79230   0.57740   0.06550   0.00000  Uiso   1.00
H317   H     0.79840   0.61680   0.06060   0.00000  Uiso   1.00
C318   C     0.90650   0.16050   0.05400   0.00000  Uiso   1.00
H319   H     0.89190   0.14740   0.99500   0.00000  Uiso   1.00
C320   C     0.92160   0.34860   0.96630   0.00000  Uiso   1.00
H321   H     0.87420   0.34050   0.91210   0.00000  Uiso   1.00
C322   C     0.80530   0.39200   0.32210   0.00000  Uiso   1.00
C323   C     0.83560   0.50970   0.60780   0.00000  Uiso   1.00
O324   O     0.67530   0.57390   0.24280   0.00000  Uiso   1.00
C325   C     0.71690   0.59400   0.18930   0.00000  Uiso   1.00
O326   O     0.77550   0.54800   0.56660   0.00000  Uiso   1.00
O327   O     0.89400   0.48350   0.57310   0.00000  Uiso   1.00
C328   C     0.80680   0.45040   0.36050   0.00000  Uiso   1.00
O329   O     0.73130   0.64750   0.18190   0.00000  Uiso   1.00
O330   O     0.87780   0.48330   0.36860   0.00000  Uiso   1.00
O331   O     0.73140   0.46490   0.37850   0.00000  Uiso   1.00
O332   O     0.41170   0.24040   0.26400   0.00000  Uiso   1.00
Cd333  Cd    0.00000   0.50000   0.50000   0.00000  Uiso   1.00
Cd334  Cd    0.00000   0.00000   0.00000   0.00000  Uiso   1.00
loop_
_geom_bond_atom_site_label_1
_geom_bond_atom_site_label_2
_geom_bond_distance
_geom_bond_site_symmetry_2
_ccdc_geom_bond_type
Cd1    O3      2.335   .     S
Cd1    O4      2.509   .     S
Cd1    O16     2.231   .     S
Cd1    O158    2.644   .     S
Cd1    O160    2.251   .     S
Cd1    O164    2.733   .     S
Cd1    O165    2.196   .     S
Cd2    O4      2.294   .     S
Cd2    O22     2.417   .     S
Cd2    O23     2.310   .     S
Cd2    O83     2.271   .     S
Cd2    O163    2.230   .     S
Cd2    O16     2.349   .     S
O3     C5      1.251   .     S
O4     C5      1.293   .     S
C5     C6      1.473   .     S
C6     C10     1.382   .     S
C6     C12     1.401   .     S
C7     C8      1.387   .     S
C7     C14     1.376   .     S
C7     N17     1.439   .     S
C8     H9      0.930   .     S
C8     C10     1.383   .     S
C10    H11     0.930   .     S
C12    H13     0.931   .     S
C12    C14     1.380   .     S
C14    H15     0.929   .     S
O16    C25     1.301   .     S
N17    C20     1.402   .     S
N17    C62     1.414   .     S
C18    H19     0.930   .     S
C18    C29     1.363   .     S
C18    C20     1.423   .     S
C20    C47     1.384   .     S
O21    C25     1.227   .     S
O21    Cd333   2.258   .     S
O22    C31     1.227   .     S
O23    C31     1.277   .     S
C24    C25     1.477   1_655 S
C24    C27     1.392   1_655 S
C24    C69     1.387   .     S
C25    C24     1.477   1_455 S
C26    C31     1.507   .     S
C26    C41     1.372   .     S
C26    C60     1.392   1_455 S
C27    C24     1.392   1_455 S
C27    H28     0.931   .     S
C27    C37     1.387   1_455 S
C29    H30     0.931   .     S
C29    C73     1.389   .     S
N32    C33     1.438   .     S
N32    C51     1.429   .     S
N32    C52     1.439   .     S
C33    C45     1.382   .     S
C33    C49     1.386   1_545 S
C34    C39     1.382   .     S
C34    C63     1.393   1_545 S
C34    C74     1.468   1_545 S
C35    H36     0.930   .     S
C35    C51     1.399   .     S
C35    C63     1.381   1_545 S
C37    C27     1.387   1_655 S
C37    H38     0.929   .     S
C37    C62     1.383   .     S
C39    H40     0.929   .     S
C39    C53     1.374   .     S
C41    H42     0.930   .     S
C41    C43     1.400   1_455 S
C43    C41     1.400   1_655 S
C43    H44     0.929   .     S
C43    C52     1.375   .     S
C45    H46     0.929   .     S
C45    C65     1.404   .     S
C47    H48     0.930   .     S
C47    C55     1.393   .     S
C49    C33     1.386   1_565 S
C49    H50     0.930   .     S
C49    C67     1.396   .     S
C51    C53     1.374   .     S
C52    C71     1.389   .     S
C53    H54     0.932   .     S
C55    H56     0.930   .     S
C55    C73     1.399   .     S
C57    H58     0.931   .     S
C57    C62     1.409   .     S
C57    C69     1.347   .     S
C59    C65     1.359   1_565 S
C59    C76     1.481   .     S
C59    C67     1.417   .     S
C60    C26     1.392   1_655 S
C60    H61     0.929   .     S
C60    C71     1.406   .     S
C63    C34     1.393   1_565 S
C63    H64     0.930   .     S
C63    C35     1.381   1_565 S
C65    C59     1.359   1_545 S
C65    H66     0.931   .     S
C67    H68     0.931   .     S
C69    H70     0.930   .     S
C71    H72     0.930   .     S
C73    C79     1.489   .     S
C74    C34     1.468   1_565 S
C74    O77     1.276   .     S
C74    O78     1.285   1_565 S
O75    C76     1.256   .     S
O75    Cd84    2.644   .     S
C76    O80     1.280   .     S
O77    Cd84    2.251   1_554 S
O78    C74     1.285   1_545 S
O78    Cd334   2.198   1_655 S
C79    O81     1.256   .     S
C79    O82     1.249   .     S
O80    Cd85    2.230   .     S
O81    Cd84    2.733   1_545 S
O81    Cd334   2.292   1_656 S
O82    Cd84    2.196   1_545 S
Cd84   O86     2.335   .     S
Cd84   O87     2.509   .     S
Cd84   O99     2.231   .     S
Cd84   O77     2.251   1_556 S
Cd84   O81     2.733   1_565 S
Cd84   O82     2.196   1_565 S
Cd85   O87     2.294   .     S
Cd85   O105    2.417   .     S
Cd85   O106    2.310   .     S
Cd85   O166    2.271   .     S
Cd85   O99     2.349   .     S
O86    C88     1.251   .     S
O87    C88     1.293   .     S
C88    C89     1.473   .     S
C89    C93     1.382   .     S
C89    C95     1.401   .     S
C90    C91     1.387   .     S
C90    C97     1.376   .     S
C90    N100    1.439   .     S
C91    H92     0.930   .     S
C91    C93     1.383   .     S
C93    H94     0.930   .     S
C95    H96     0.931   .     S
C95    C97     1.380   .     S
C97    H98     0.929   .     S
O99    C108    1.301   .     S
N100   C103    1.402   .     S
N100   C145    1.414   .     S
C101   H102    0.930   .     S
C101   C112    1.363   .     S
C101   C103    1.423   .     S
C103   C130    1.384   .     S
O104   C108    1.227   .     S
O104   Cd334   2.258   1_666 S
O105   C114    1.227   .     S
O106   C114    1.277   .     S
C107   C108    1.477   1_455 S
C107   C110    1.392   1_455 S
C107   C152    1.387   .     S
C108   C107    1.477   1_655 S
C109   C114    1.507   .     S
C109   C124    1.372   .     S
C109   C143    1.392   1_655 S
C110   C107    1.392   1_655 S
C110   H111    0.931   .     S
C110   C120    1.387   1_655 S
C112   H113    0.931   .     S
C112   C156    1.389   .     S
N115   C116    1.438   1_554 S
N115   C134    1.429   .     S
N115   C135    1.439   1_554 S
C116   N115    1.438   1_556 S
C116   C128    1.382   .     S
C116   C132    1.386   .     S
C117   C122    1.382   .     S
C117   C146    1.393   .     S
C117   C157    1.468   .     S
C118   H119    0.930   .     S
C118   C134    1.399   .     S
C118   C146    1.381   .     S
C120   C110    1.387   1_455 S
C120   H121    0.929   .     S
C120   C145    1.383   .     S
C122   H123    0.929   .     S
C122   C136    1.374   .     S
C124   H125    0.930   .     S
C124   C126    1.400   1_655 S
C126   C124    1.400   1_455 S
C126   H127    0.929   .     S
C126   C135    1.375   .     S
C128   H129    0.929   .     S
C128   C148    1.404   .     S
C130   H131    0.930   .     S
C130   C138    1.393   .     S
C132   H133    0.930   1_556 S
C132   C150    1.396   .     S
H133   C132    0.930   1_554 S
C134   C136    1.374   .     S
C135   N115    1.439   1_556 S
C135   C154    1.389   1_556 S
C136   H137    0.932   .     S
C138   H139    0.930   .     S
C138   C156    1.399   .     S
C140   H141    0.931   .     S
C140   C145    1.409   .     S
C140   C152    1.347   .     S
C142   C148    1.359   .     S
C142   C159    1.481   .     S
C142   C150    1.417   .     S
C143   C109    1.392   1_455 S
C143   H144    0.929   1_556 S
C143   C154    1.406   1_556 S
H144   C143    0.929   1_554 S
C146   H147    0.930   .     S
C148   H149    0.931   .     S
C150   H151    0.931   .     S
C152   H153    0.930   1_556 S
H153   C152    0.930   1_554 S
C154   C135    1.389   1_554 S
C154   H155    0.930   .     S
C154   C143    1.406   1_554 S
C156   C162    1.489   .     S
C157   O160    1.276   .     S
C157   O161    1.285   .     S
O158   C159    1.256   .     S
C159   O163    1.280   .     S
O161   Cd333   2.198   .     S
C162   O164    1.256   .     S
C162   O165    1.249   .     S
O164   Cd333   2.292   .     S
Cd167  O169    2.335   .     S
Cd167  O170    2.509   .     S
Cd167  O182    2.231   .     S
Cd167  O324    2.644   .     S
Cd167  O326    2.251   .     S
Cd167  O330    2.733   .     S
Cd167  O331    2.196   .     S
Cd168  O170    2.294   .     S
Cd168  O188    2.417   .     S
Cd168  O189    2.310   .     S
Cd168  O249    2.271   .     S
Cd168  O329    2.230   .     S
Cd168  O182    2.349   .     S
O169   C171    1.251   .     S
O170   C171    1.293   .     S
C171   C172    1.473   .     S
C172   C176    1.382   .     S
C172   C178    1.401   .     S
C173   C174    1.387   .     S
C173   C180    1.376   .     S
C173   N183    1.439   .     S
C174   H175    0.930   .     S
C174   C176    1.383   .     S
C176   H177    0.930   .     S
C178   H179    0.931   .     S
C178   C180    1.380   .     S
C180   H181    0.929   .     S
O182   C191    1.301   .     S
N183   C186    1.402   .     S
N183   C228    1.414   .     S
C184   H185    0.930   .     S
C184   C195    1.363   .     S
C184   C186    1.423   .     S
C186   C213    1.384   .     S
O187   C191    1.227   .     S
O187   Cd333   2.258   1_655 S
O188   C197    1.227   .     S
O189   C197    1.277   .     S
C190   C191    1.477   1_455 S
C190   C193    1.392   1_455 S
C190   C235    1.387   .     S
C191   C190    1.477   1_655 S
C192   C197    1.507   .     S
C192   C207    1.372   .     S
C192   C226    1.392   1_655 S
C193   C190    1.392   1_655 S
C193   H194    0.931   .     S
C193   C203    1.387   1_655 S
C195   H196    0.931   .     S
C195   C239    1.389   .     S
N198   C199    1.438   .     S
N198   C217    1.429   .     S
N198   C218    1.439   .     S
C199   C211    1.382   .     S
C199   C215    1.386   1_565 S
C200   C205    1.382   .     S
C200   C229    1.393   1_565 S
C200   C240    1.468   1_565 S
C201   H202    0.930   .     S
C201   C217    1.399   .     S
C201   C229    1.381   1_565 S
C203   C193    1.387   1_455 S
C203   H204    0.929   .     S
C203   C228    1.383   .     S
C205   H206    0.929   .     S
C205   C219    1.374   .     S
C207   H208    0.930   .     S
C207   C209    1.400   1_655 S
C209   C207    1.400   1_455 S
C209   H210    0.929   .     S
C209   C218    1.375   .     S
C211   H212    0.929   .     S
C211   C231    1.404   .     S
C213   H214    0.930   .     S
C213   C221    1.393   .     S
C215   C199    1.386   1_545 S
C215   H216    0.930   .     S
C215   C233    1.396   .     S
C217   C219    1.374   .     S
C218   C237    1.389   .     S
C219   H220    0.932   .     S
C221   H222    0.930   .     S
C221   C239    1.399   .     S
C223   H224    0.931   .     S
C223   C228    1.409   .     S
C223   C235    1.347   .     S
C225   C231    1.359   1_545 S
C225   C242    1.481   .     S
C225   C233    1.417   .     S
C226   C192    1.392   1_455 S
C226   H227    0.929   .     S
C226   C237    1.406   .     S
C229   C200    1.393   1_545 S
C229   H230    0.930   .     S
C229   C201    1.381   1_545 S
C231   C225    1.359   1_565 S
C231   H232    0.931   .     S
C233   H234    0.931   .     S
C235   H236    0.930   .     S
C237   H238    0.930   .     S
C239   C245    1.489   .     S
C240   C200    1.468   1_545 S
C240   O243    1.276   .     S
C240   O244    1.285   1_545 S
O241   C242    1.256   .     S
O241   Cd250   2.644   .     S
C242   O246    1.280   .     S
O243   Cd250   2.251   1_556 S
O244   C240    1.285   1_565 S
O244   Cd334   2.198   1_566 S
C245   O247    1.256   .     S
C245   O248    1.249   .     S
O246   Cd251   2.230   .     S
O247   Cd250   2.733   1_565 S
O247   Cd334   2.292   1_565 S
O248   Cd250   2.196   1_565 S
Cd250  O252    2.335   .     S
Cd250  O253    2.509   .     S
Cd250  O265    2.231   .     S
Cd250  O243    2.251   1_554 S
Cd250  O247    2.733   1_545 S
Cd250  O248    2.196   1_545 S
Cd251  O253    2.294   .     S
Cd251  O271    2.417   .     S
Cd251  O272    2.310   .     S
Cd251  O332    2.271   .     S
Cd251  O265    2.349   .     S
O252   C254    1.251   .     S
O253   C254    1.293   .     S
C254   C255    1.473   .     S
C255   C259    1.382   .     S
C255   C261    1.401   .     S
C256   C257    1.387   .     S
C256   C263    1.376   .     S
C256   N266    1.439   .     S
C257   H258    0.930   .     S
C257   C259    1.383   .     S
C259   H260    0.930   .     S
C261   H262    0.931   .     S
C261   C263    1.380   .     S
C263   H264    0.929   .     S
O265   C274    1.301   .     S
N266   C269    1.402   .     S
N266   C311    1.414   .     S
C267   H268    0.930   .     S
C267   C278    1.363   .     S
C267   C269    1.423   .     S
C269   C296    1.384   .     S
O270   C274    1.227   .     S
O270   Cd334   2.258   .     S
O271   C280    1.227   .     S
O272   C280    1.277   .     S
C273   C274    1.477   1_655 S
C273   C276    1.392   1_655 S
C273   C318    1.387   .     S
C274   C273    1.477   1_455 S
C275   C280    1.507   .     S
C275   C290    1.372   .     S
C275   C309    1.392   1_455 S
C276   C273    1.392   1_455 S
C276   H277    0.931   .     S
C276   C286    1.387   1_455 S
C278   H279    0.931   .     S
C278   C322    1.389   .     S
N281   C282    1.438   1_556 S
N281   C300    1.429   .     S
N281   C301    1.439   1_556 S
C282   N281    1.438   1_554 S
C282   C294    1.382   .     S
C282   C298    1.386   .     S
C283   C288    1.382   .     S
C283   C312    1.393   .     S
C283   C323    1.468   .     S
C284   H285    0.930   .     S
C284   C300    1.399   .     S
C284   C312    1.381   .     S
C286   C276    1.387   1_655 S
C286   H287    0.929   .     S
C286   C311    1.383   .     S
C288   H289    0.929   .     S
C288   C302    1.374   .     S
C290   H291    0.930   .     S
C290   C292    1.400   1_455 S
C292   C290    1.400   1_655 S
C292   H293    0.929   .     S
C292   C301    1.375   .     S
C294   H295    0.929   .     S
C294   C314    1.404   .     S
C296   H297    0.930   .     S
C296   C304    1.393   .     S
C298   H299    0.930   1_554 S
C298   C316    1.396   .     S
H299   C298    0.930   1_556 S
C300   C302    1.374   .     S
C301   N281    1.439   1_554 S
C301   C320    1.389   1_554 S
C302   H303    0.932   .     S
C304   H305    0.930   .     S
C304   C322    1.399   .     S
C306   H307    0.931   .     S
C306   C311    1.409   .     S
C306   C318    1.347   .     S
C308   C314    1.359   .     S
C308   C325    1.481   .     S
C308   C316    1.417   .     S
C309   C275    1.392   1_655 S
C309   H310    0.929   1_554 S
C309   C320    1.406   1_554 S
H310   C309    0.929   1_556 S
C312   H313    0.930   .     S
C314   H315    0.931   .     S
C316   H317    0.931   .     S
C318   H319    0.930   1_554 S
H319   C318    0.930   1_556 S
C320   C301    1.389   1_556 S
C320   H321    0.930   .     S
C320   C309    1.406   1_556 S
C322   C328    1.489   .     S
C323   O326    1.276   .     S
C323   O327    1.285   .     S
O324   C325    1.256   .     S
C325   O329    1.280   .     S
O327   Cd333   2.198   1_655 S
C328   O330    1.256   .     S
C328   O331    1.249   .     S
O330   Cd333   2.292   1_655 S
Cd333  O187    2.258   1_455 S
Cd333  O327    2.198   1_455 S
Cd333  O330    2.292   1_455 S
Cd334  O104    2.258   1_444 S
Cd334  O78     2.198   1_455 S
Cd334  O244    2.198   1_544 S
Cd334  O81     2.292   1_454 S
Cd334  O247    2.292   1_545 S
