data_ASATIY_FSR
_audit_creation_date              2024-06-11
_audit_creation_method            'Materials Studio'
_symmetry_space_group_name_H-M    'P1'
_symmetry_Int_Tables_number       1
_symmetry_cell_setting            triclinic
loop_
_symmetry_equiv_pos_as_xyz
  x,y,z
_cell_length_a                    22.9980
_cell_length_b                    8.5630
_cell_length_c                    16.1460
_cell_angle_alpha                 90.0000
_cell_angle_beta                  90.0000
_cell_angle_gamma                 90.0000
loop_
_atom_site_label
_atom_site_type_symbol
_atom_site_fract_x
_atom_site_fract_y
_atom_site_fract_z
_atom_site_U_iso_or_equiv
_atom_site_adp_type
_atom_site_occupancy
Zn1    Zn    0.42319   0.39968   0.74812   0.01353  Uani   1.00
P2     P     0.38030   0.64122   0.88007   0.01117  Uani   1.00
C3     C     0.44680   0.68340   0.93440   0.01233  Uani   1.00
C4     C     0.44720   0.74720   0.01320   0.01367  Uani   1.00
H5     H     0.41220   0.76970   0.03960   0.01600  Uiso   1.00
O6     O     0.37298   0.76190   0.81100   0.01620  Uani   1.00
O7     O     0.38367   0.47560   0.84610   0.01600  Uani   1.00
O8     O     0.33046   0.65850   0.94190   0.01603  Uani   1.00
O9     O     0.44412   0.92950   0.17580   0.01733  Uani   1.00
O10    O     0.24640   0.61400   0.09380   0.04633  Uani   1.00
Zn11   Zn   -0.07681   0.89968   0.74812   0.01353  Uani   1.00
P12    P    -0.11970   0.14122   0.88007   0.01117  Uani   1.00
C13    C    -0.05320   0.18340   0.93440   0.01233  Uani   1.00
C14    C    -0.05280   0.24720   0.01320   0.01367  Uani   1.00
H15    H    -0.08780   0.26970   0.03960   0.01600  Uiso   1.00
O16    O    -0.12702   0.26190   0.81100   0.01620  Uani   1.00
O17    O    -0.11633   0.97560   0.84610   0.01600  Uani   1.00
O18    O    -0.16954   0.15850   0.94190   0.01603  Uani   1.00
O19    O    -0.05588   0.42950   0.17580   0.01733  Uani   1.00
O20    O    -0.25360   0.11400   0.09380   0.04633  Uani   1.00
Zn21   Zn    0.57681   0.10032   0.24812   0.01353  Uani   1.00
P22    P     0.61970   0.85878   0.38007   0.01117  Uani   1.00
C23    C     0.55320   0.81660   0.43440   0.01233  Uani   1.00
C24    C     0.55280   0.75280   0.51320   0.01367  Uani   1.00
H25    H     0.58780   0.73030   0.53960   0.01600  Uiso   1.00
O26    O     0.62702   0.73810   0.31100   0.01620  Uani   1.00
O27    O     0.61633   0.02440   0.34610   0.01600  Uani   1.00
O28    O     0.66954   0.84150   0.44190   0.01603  Uani   1.00
O29    O     0.55588   0.57050   0.67580   0.01733  Uani   1.00
O30    O     0.75360   0.88600   0.59380   0.04633  Uani   1.00
Zn31   Zn    0.07681   0.60032   0.24812   0.01353  Uani   1.00
P32    P     0.11970   0.35878   0.38007   0.01117  Uani   1.00
C33    C     0.05320   0.31660   0.43440   0.01233  Uani   1.00
C34    C     0.05280   0.25280   0.51320   0.01367  Uani   1.00
H35    H     0.08780   0.23030   0.53960   0.01600  Uiso   1.00
O36    O     0.12702   0.23810   0.31100   0.01620  Uani   1.00
O37    O     0.11633   0.52440   0.34610   0.01600  Uani   1.00
O38    O     0.16954   0.34150   0.44190   0.01603  Uani   1.00
O39    O     0.05588   0.07050   0.67580   0.01733  Uani   1.00
O40    O     0.25360   0.38600   0.59380   0.04633  Uani   1.00
Zn41   Zn    0.57681   0.89968   0.75188   0.01353  Uani   1.00
P42    P     0.61970   0.14122   0.61993   0.01117  Uani   1.00
C43    C     0.55320   0.18340   0.56560   0.01233  Uani   1.00
C44    C     0.55280   0.24720   0.48680   0.01367  Uani   1.00
H45    H     0.58780   0.26970   0.46040   0.01600  Uiso   1.00
O46    O     0.62702   0.26190   0.68900   0.01620  Uani   1.00
O47    O     0.61633   0.97560   0.65390   0.01600  Uani   1.00
O48    O     0.66954   0.15850   0.55810   0.01603  Uani   1.00
O49    O     0.55588   0.42950   0.32420   0.01733  Uani   1.00
O50    O     0.75360   0.11400   0.40620   0.04633  Uani   1.00
Zn51   Zn    0.07681   0.39968   0.75188   0.01353  Uani   1.00
P52    P     0.11970   0.64122   0.61993   0.01117  Uani   1.00
C53    C     0.05320   0.68340   0.56560   0.01233  Uani   1.00
C54    C     0.05280   0.74720   0.48680   0.01367  Uani   1.00
H55    H     0.08780   0.76970   0.46040   0.01600  Uiso   1.00
O56    O     0.12702   0.76190   0.68900   0.01620  Uani   1.00
O57    O     0.11633   0.47560   0.65390   0.01600  Uani   1.00
O58    O     0.16954   0.65850   0.55810   0.01603  Uani   1.00
O59    O     0.05588   0.92950   0.32420   0.01733  Uani   1.00
O60    O     0.25360   0.61400   0.40620   0.04633  Uani   1.00
Zn61   Zn    0.42319   0.60032   0.25188   0.01353  Uani   1.00
P62    P     0.38030   0.35878   0.11993   0.01117  Uani   1.00
C63    C     0.44680   0.31660   0.06560   0.01233  Uani   1.00
C64    C     0.44720   0.25280   0.98680   0.01367  Uani   1.00
H65    H     0.41220   0.23030   0.96040   0.01600  Uiso   1.00
O66    O     0.37298   0.23810   0.18900   0.01620  Uani   1.00
O67    O     0.38367   0.52440   0.15390   0.01600  Uani   1.00
O68    O     0.33046   0.34150   0.05810   0.01603  Uani   1.00
O69    O     0.44412   0.07050   0.82420   0.01733  Uani   1.00
O70    O     0.24640   0.38600   0.90620   0.04633  Uani   1.00
Zn71   Zn   -0.07681   0.10032   0.25188   0.01353  Uani   1.00
P72    P    -0.11970   0.85878   0.11993   0.01117  Uani   1.00
C73    C    -0.05320   0.81660   0.06560   0.01233  Uani   1.00
C74    C    -0.05280   0.75280   0.98680   0.01367  Uani   1.00
H75    H    -0.08780   0.73030   0.96040   0.01600  Uiso   1.00
O76    O    -0.12702   0.73810   0.18900   0.01620  Uani   1.00
O77    O    -0.11633   0.02440   0.15390   0.01600  Uani   1.00
O78    O    -0.16954   0.84150   0.05810   0.01603  Uani   1.00
O79    O    -0.05588   0.57050   0.82420   0.01733  Uani   1.00
O80    O    -0.25360   0.88600   0.90620   0.04633  Uani   1.00
Zn81   Zn    0.57681   0.60032   0.25188   0.01353  Uani   1.00
P82    P     0.61970   0.35878   0.11993   0.01117  Uani   1.00
C83    C     0.55320   0.31660   0.06560   0.01233  Uani   1.00
C84    C     0.55280   0.25280   0.98680   0.01367  Uani   1.00
H85    H     0.58780   0.23030   0.96040   0.01600  Uiso   1.00
O86    O     0.62702   0.23810   0.18900   0.01620  Uani   1.00
O87    O     0.61633   0.52440   0.15390   0.01600  Uani   1.00
O88    O     0.66954   0.34150   0.05810   0.01603  Uani   1.00
O89    O     0.55588   0.07050   0.82420   0.01733  Uani   1.00
O90    O     0.75360   0.38600   0.90620   0.04633  Uani   1.00
Zn91   Zn    0.07681   0.10032   0.25188   0.01353  Uani   1.00
P92    P     0.11970   0.85878   0.11993   0.01117  Uani   1.00
C93    C     0.05320   0.81660   0.06560   0.01233  Uani   1.00
C94    C     0.05280   0.75280   0.98680   0.01367  Uani   1.00
H95    H     0.08780   0.73030   0.96040   0.01600  Uiso   1.00
O96    O     0.12702   0.73810   0.18900   0.01620  Uani   1.00
O97    O     0.11633   0.02440   0.15390   0.01600  Uani   1.00
O98    O     0.16954   0.84150   0.05810   0.01603  Uani   1.00
O99    O     0.05588   0.57050   0.82420   0.01733  Uani   1.00
O100   O     0.25360   0.88600   0.90620   0.04633  Uani   1.00
Zn101  Zn    0.42319   0.89968   0.75188   0.01353  Uani   1.00
P102   P     0.38030   0.14122   0.61993   0.01117  Uani   1.00
C103   C     0.44680   0.18340   0.56560   0.01233  Uani   1.00
C104   C     0.44720   0.24720   0.48680   0.01367  Uani   1.00
H105   H     0.41220   0.26970   0.46040   0.01600  Uiso   1.00
O106   O     0.37298   0.26190   0.68900   0.01620  Uani   1.00
O107   O     0.38367   0.97560   0.65390   0.01600  Uani   1.00
O108   O     0.33046   0.15850   0.55810   0.01603  Uani   1.00
O109   O     0.44412   0.42950   0.32420   0.01733  Uani   1.00
O110   O     0.24640   0.11400   0.40620   0.04633  Uani   1.00
Zn111  Zn   -0.07681   0.39968   0.75188   0.01353  Uani   1.00
P112   P    -0.11970   0.64122   0.61993   0.01117  Uani   1.00
C113   C    -0.05320   0.68340   0.56560   0.01233  Uani   1.00
C114   C    -0.05280   0.74720   0.48680   0.01367  Uani   1.00
H115   H    -0.08780   0.76970   0.46040   0.01600  Uiso   1.00
O116   O    -0.12702   0.76190   0.68900   0.01620  Uani   1.00
O117   O    -0.11633   0.47560   0.65390   0.01600  Uani   1.00
O118   O    -0.16954   0.65850   0.55810   0.01603  Uani   1.00
O119   O    -0.05588   0.92950   0.32420   0.01733  Uani   1.00
O120   O    -0.25360   0.61400   0.40620   0.04633  Uani   1.00
Zn121  Zn    0.42319   0.10032   0.24812   0.01353  Uani   1.00
P122   P     0.38030   0.85878   0.38007   0.01117  Uani   1.00
C123   C     0.44680   0.81660   0.43440   0.01233  Uani   1.00
C124   C     0.44720   0.75280   0.51320   0.01367  Uani   1.00
H125   H     0.41220   0.73030   0.53960   0.01600  Uiso   1.00
O126   O     0.37298   0.73810   0.31100   0.01620  Uani   1.00
O127   O     0.38367   0.02440   0.34610   0.01600  Uani   1.00
O128   O     0.33046   0.84150   0.44190   0.01603  Uani   1.00
O129   O     0.44412   0.57050   0.67580   0.01733  Uani   1.00
O130   O     0.24640   0.88600   0.59380   0.04633  Uani   1.00
Zn131  Zn   -0.07681   0.60032   0.24812   0.01353  Uani   1.00
P132   P    -0.11970   0.35878   0.38007   0.01117  Uani   1.00
C133   C    -0.05320   0.31660   0.43440   0.01233  Uani   1.00
C134   C    -0.05280   0.25280   0.51320   0.01367  Uani   1.00
H135   H    -0.08780   0.23030   0.53960   0.01600  Uiso   1.00
O136   O    -0.12702   0.23810   0.31100   0.01620  Uani   1.00
O137   O    -0.11633   0.52440   0.34610   0.01600  Uani   1.00
O138   O    -0.16954   0.34150   0.44190   0.01603  Uani   1.00
O139   O    -0.05588   0.07050   0.67580   0.01733  Uani   1.00
O140   O    -0.25360   0.38600   0.59380   0.04633  Uani   1.00
Zn141  Zn    0.57681   0.39968   0.74812   0.01353  Uani   1.00
P142   P     0.61970   0.64122   0.88007   0.01117  Uani   1.00
C143   C     0.55320   0.68340   0.93440   0.01233  Uani   1.00
C144   C     0.55280   0.74720   0.01320   0.01367  Uani   1.00
H145   H     0.58780   0.76970   0.03960   0.01600  Uiso   1.00
O146   O     0.62702   0.76190   0.81100   0.01620  Uani   1.00
O147   O     0.61633   0.47560   0.84610   0.01600  Uani   1.00
O148   O     0.66954   0.65850   0.94190   0.01603  Uani   1.00
O149   O     0.55588   0.92950   0.17580   0.01733  Uani   1.00
O150   O     0.75360   0.61400   0.09380   0.04633  Uani   1.00
Zn151  Zn    0.07681   0.89968   0.74812   0.01353  Uani   1.00
P152   P     0.11970   0.14122   0.88007   0.01117  Uani   1.00
C153   C     0.05320   0.18340   0.93440   0.01233  Uani   1.00
C154   C     0.05280   0.24720   0.01320   0.01367  Uani   1.00
H155   H     0.08780   0.26970   0.03960   0.01600  Uiso   1.00
O156   O     0.12702   0.26190   0.81100   0.01620  Uani   1.00
O157   O     0.11633   0.97560   0.84610   0.01600  Uani   1.00
O158   O     0.16954   0.15850   0.94190   0.01603  Uani   1.00
O159   O     0.05588   0.42950   0.17580   0.01733  Uani   1.00
O160   O     0.25360   0.11400   0.09380   0.04633  Uani   1.00
Zn161  Zn    0.28781   0.50000  -0.00000   0.02257  Uani   1.00
Zn162  Zn   -0.21219   0.00000  -0.00000   0.02257  Uani   1.00
Zn163  Zn    0.71219   0.00000   0.50000   0.02257  Uani   1.00
Zn164  Zn    0.21219   0.50000   0.50000   0.02257  Uani   1.00
Zn165  Zn    0.71219   0.50000   0.00000   0.02257  Uani   1.00
Zn166  Zn    0.21219   0.00000   0.00000   0.02257  Uani   1.00
Zn167  Zn    0.28781   0.00000   0.50000   0.02257  Uani   1.00
Zn168  Zn   -0.21219   0.50000   0.50000   0.02257  Uani   1.00
P169   P     0.50000   0.84140   0.15969   0.01197  Uani   1.00
C170   C     0.50000   0.64820   0.89660   0.01233  Uani   1.00
H171   H     0.50000   0.60000   0.84500   0.01500  Uiso   1.00
C172   C     0.50000   0.77840   0.05380   0.01167  Uani   1.00
O173   O     0.50000   0.68930   0.21470   0.01400  Uani   1.00
P174   P     0.00000   0.34140   0.15969   0.01197  Uani   1.00
C175   C     0.00000   0.14820   0.89660   0.01233  Uani   1.00
H176   H     0.00000   0.10000   0.84500   0.01500  Uiso   1.00
C177   C     0.00000   0.27840   0.05380   0.01167  Uani   1.00
O178   O     0.00000   0.18930   0.21470   0.01400  Uani   1.00
P179   P     0.50000   0.65860   0.65969   0.01197  Uani   1.00
C180   C     0.50000   0.85180   0.39660   0.01233  Uani   1.00
H181   H     0.50000   0.90000   0.34500   0.01500  Uiso   1.00
C182   C     0.50000   0.72160   0.55380   0.01167  Uani   1.00
O183   O     0.50000   0.81070   0.71470   0.01400  Uani   1.00
P184   P     0.00000   0.15860   0.65969   0.01197  Uani   1.00
C185   C     0.00000   0.35180   0.39660   0.01233  Uani   1.00
H186   H     0.00000   0.40000   0.34500   0.01500  Uiso   1.00
C187   C     0.00000   0.22160   0.55380   0.01167  Uani   1.00
O188   O     0.00000   0.31070   0.71470   0.01400  Uani   1.00
P189   P     0.50000   0.34140   0.34031   0.01197  Uani   1.00
C190   C     0.50000   0.14820   0.60340   0.01233  Uani   1.00
H191   H     0.50000   0.10000   0.65500   0.01500  Uiso   1.00
C192   C     0.50000   0.27840   0.44620   0.01167  Uani   1.00
O193   O     0.50000   0.18930   0.28530   0.01400  Uani   1.00
P194   P     0.00000   0.84140   0.34031   0.01197  Uani   1.00
C195   C     0.00000   0.64820   0.60340   0.01233  Uani   1.00
H196   H     0.00000   0.60000   0.65500   0.01500  Uiso   1.00
C197   C     0.00000   0.77840   0.44620   0.01167  Uani   1.00
O198   O     0.00000   0.68930   0.28530   0.01400  Uani   1.00
P199   P     0.50000   0.15860   0.84031   0.01197  Uani   1.00
C200   C     0.50000   0.35180   0.10340   0.01233  Uani   1.00
H201   H     0.50000   0.40000   0.15500   0.01500  Uiso   1.00
C202   C     0.50000   0.22160   0.94620   0.01167  Uani   1.00
O203   O     0.50000   0.31070   0.78530   0.01400  Uani   1.00
P204   P     0.00000   0.65860   0.84031   0.01197  Uani   1.00
C205   C     0.00000   0.85180   0.10340   0.01233  Uani   1.00
H206   H     0.00000   0.90000   0.15500   0.01500  Uiso   1.00
C207   C     0.00000   0.72160   0.94620   0.01167  Uani   1.00
O208   O     0.00000   0.81070   0.78530   0.01400  Uani   1.00
loop_
_atom_site_aniso_label
_atom_site_aniso_U_11
_atom_site_aniso_U_22
_atom_site_aniso_U_33
_atom_site_aniso_U_12
_atom_site_aniso_U_13
_atom_site_aniso_U_23
Zn1       0.01490   0.01390   0.01180  -0.00220   0.00030  -0.00080
P2        0.01070   0.01400   0.00880  -0.00100   0.00040   0.00050
C3        0.01500   0.01200   0.01000   0.00200  -0.00100   0.00200
C4        0.01000   0.01500   0.01600   0.00400   0.00400   0.00300
O6        0.01360   0.01900   0.01600  -0.00430  -0.00110   0.00800
O7        0.01700   0.01500   0.01600  -0.00310   0.00380  -0.00120
O8        0.01210   0.01900   0.01700   0.00140   0.00390   0.00060
O9        0.01800   0.01900   0.01500   0.00480   0.00020  -0.00300
O10       0.06000   0.05200   0.02700   0.02900   0.01100   0.00400
Zn11      0.01490   0.01390   0.01180  -0.00220   0.00030  -0.00080
P12       0.01070   0.01400   0.00880  -0.00100   0.00040   0.00050
C13       0.01500   0.01200   0.01000   0.00200  -0.00100   0.00200
C14       0.01000   0.01500   0.01600   0.00400   0.00400   0.00300
O16       0.01360   0.01900   0.01600  -0.00430  -0.00110   0.00800
O17       0.01700   0.01500   0.01600  -0.00310   0.00380  -0.00120
O18       0.01210   0.01900   0.01700   0.00140   0.00390   0.00060
O19       0.01800   0.01900   0.01500   0.00480   0.00020  -0.00300
O20       0.06000   0.05200   0.02700   0.02900   0.01100   0.00400
Zn21      0.01490   0.01390   0.01180  -0.00220  -0.00030   0.00080
P22       0.01070   0.01400   0.00880  -0.00100  -0.00040  -0.00050
C23       0.01500   0.01200   0.01000   0.00200   0.00100  -0.00200
C24       0.01000   0.01500   0.01600   0.00400  -0.00400  -0.00300
O26       0.01360   0.01900   0.01600  -0.00430   0.00110  -0.00800
O27       0.01700   0.01500   0.01600  -0.00310  -0.00380   0.00120
O28       0.01210   0.01900   0.01700   0.00140  -0.00390  -0.00060
O29       0.01800   0.01900   0.01500   0.00480  -0.00020   0.00300
O30       0.06000   0.05200   0.02700   0.02900  -0.01100  -0.00400
Zn31      0.01490   0.01390   0.01180  -0.00220  -0.00030   0.00080
P32       0.01070   0.01400   0.00880  -0.00100  -0.00040  -0.00050
C33       0.01500   0.01200   0.01000   0.00200   0.00100  -0.00200
C34       0.01000   0.01500   0.01600   0.00400  -0.00400  -0.00300
O36       0.01360   0.01900   0.01600  -0.00430   0.00110  -0.00800
O37       0.01700   0.01500   0.01600  -0.00310  -0.00380   0.00120
O38       0.01210   0.01900   0.01700   0.00140  -0.00390  -0.00060
O39       0.01800   0.01900   0.01500   0.00480  -0.00020   0.00300
O40       0.06000   0.05200   0.02700   0.02900  -0.01100  -0.00400
Zn41      0.01490   0.01390   0.01180   0.00220   0.00030   0.00080
P42       0.01070   0.01400   0.00880   0.00100   0.00040  -0.00050
C43       0.01500   0.01200   0.01000  -0.00200  -0.00100  -0.00200
C44       0.01000   0.01500   0.01600  -0.00400   0.00400  -0.00300
O46       0.01360   0.01900   0.01600   0.00430  -0.00110  -0.00800
O47       0.01700   0.01500   0.01600   0.00310   0.00380   0.00120
O48       0.01210   0.01900   0.01700  -0.00140   0.00390  -0.00060
O49       0.01800   0.01900   0.01500  -0.00480   0.00020   0.00300
O50       0.06000   0.05200   0.02700  -0.02900   0.01100  -0.00400
Zn51      0.01490   0.01390   0.01180   0.00220   0.00030   0.00080
P52       0.01070   0.01400   0.00880   0.00100   0.00040  -0.00050
C53       0.01500   0.01200   0.01000  -0.00200  -0.00100  -0.00200
C54       0.01000   0.01500   0.01600  -0.00400   0.00400  -0.00300
O56       0.01360   0.01900   0.01600   0.00430  -0.00110  -0.00800
O57       0.01700   0.01500   0.01600   0.00310   0.00380   0.00120
O58       0.01210   0.01900   0.01700  -0.00140   0.00390  -0.00060
O59       0.01800   0.01900   0.01500  -0.00480   0.00020   0.00300
O60       0.06000   0.05200   0.02700  -0.02900   0.01100  -0.00400
Zn61      0.01490   0.01390   0.01180   0.00220  -0.00030  -0.00080
P62       0.01070   0.01400   0.00880   0.00100  -0.00040   0.00050
C63       0.01500   0.01200   0.01000  -0.00200   0.00100   0.00200
C64       0.01000   0.01500   0.01600  -0.00400  -0.00400   0.00300
O66       0.01360   0.01900   0.01600   0.00430   0.00110   0.00800
O67       0.01700   0.01500   0.01600   0.00310  -0.00380  -0.00120
O68       0.01210   0.01900   0.01700  -0.00140  -0.00390   0.00060
O69       0.01800   0.01900   0.01500  -0.00480  -0.00020  -0.00300
O70       0.06000   0.05200   0.02700  -0.02900  -0.01100   0.00400
Zn71      0.01490   0.01390   0.01180   0.00220  -0.00030  -0.00080
P72       0.01070   0.01400   0.00880   0.00100  -0.00040   0.00050
C73       0.01500   0.01200   0.01000  -0.00200   0.00100   0.00200
C74       0.01000   0.01500   0.01600  -0.00400  -0.00400   0.00300
O76       0.01360   0.01900   0.01600   0.00430   0.00110   0.00800
O77       0.01700   0.01500   0.01600   0.00310  -0.00380  -0.00120
O78       0.01210   0.01900   0.01700  -0.00140  -0.00390   0.00060
O79       0.01800   0.01900   0.01500  -0.00480  -0.00020  -0.00300
O80       0.06000   0.05200   0.02700  -0.02900  -0.01100   0.00400
Zn81      0.01490   0.01390   0.01180  -0.00220   0.00030  -0.00080
P82       0.01070   0.01400   0.00880  -0.00100   0.00040   0.00050
C83       0.01500   0.01200   0.01000   0.00200  -0.00100   0.00200
C84       0.01000   0.01500   0.01600   0.00400   0.00400   0.00300
O86       0.01360   0.01900   0.01600  -0.00430  -0.00110   0.00800
O87       0.01700   0.01500   0.01600  -0.00310   0.00380  -0.00120
O88       0.01210   0.01900   0.01700   0.00140   0.00390   0.00060
O89       0.01800   0.01900   0.01500   0.00480   0.00020  -0.00300
O90       0.06000   0.05200   0.02700   0.02900   0.01100   0.00400
Zn91      0.01490   0.01390   0.01180  -0.00220   0.00030  -0.00080
P92       0.01070   0.01400   0.00880  -0.00100   0.00040   0.00050
C93       0.01500   0.01200   0.01000   0.00200  -0.00100   0.00200
C94       0.01000   0.01500   0.01600   0.00400   0.00400   0.00300
O96       0.01360   0.01900   0.01600  -0.00430  -0.00110   0.00800
O97       0.01700   0.01500   0.01600  -0.00310   0.00380  -0.00120
O98       0.01210   0.01900   0.01700   0.00140   0.00390   0.00060
O99       0.01800   0.01900   0.01500   0.00480   0.00020  -0.00300
O100      0.06000   0.05200   0.02700   0.02900   0.01100   0.00400
Zn101     0.01490   0.01390   0.01180  -0.00220  -0.00030   0.00080
P102      0.01070   0.01400   0.00880  -0.00100  -0.00040  -0.00050
C103      0.01500   0.01200   0.01000   0.00200   0.00100  -0.00200
C104      0.01000   0.01500   0.01600   0.00400  -0.00400  -0.00300
O106      0.01360   0.01900   0.01600  -0.00430   0.00110  -0.00800
O107      0.01700   0.01500   0.01600  -0.00310  -0.00380   0.00120
O108      0.01210   0.01900   0.01700   0.00140  -0.00390  -0.00060
O109      0.01800   0.01900   0.01500   0.00480  -0.00020   0.00300
O110      0.06000   0.05200   0.02700   0.02900  -0.01100  -0.00400
Zn111     0.01490   0.01390   0.01180  -0.00220  -0.00030   0.00080
P112      0.01070   0.01400   0.00880  -0.00100  -0.00040  -0.00050
C113      0.01500   0.01200   0.01000   0.00200   0.00100  -0.00200
C114      0.01000   0.01500   0.01600   0.00400  -0.00400  -0.00300
O116      0.01360   0.01900   0.01600  -0.00430   0.00110  -0.00800
O117      0.01700   0.01500   0.01600  -0.00310  -0.00380   0.00120
O118      0.01210   0.01900   0.01700   0.00140  -0.00390  -0.00060
O119      0.01800   0.01900   0.01500   0.00480  -0.00020   0.00300
O120      0.06000   0.05200   0.02700   0.02900  -0.01100  -0.00400
Zn121     0.01490   0.01390   0.01180   0.00220   0.00030   0.00080
P122      0.01070   0.01400   0.00880   0.00100   0.00040  -0.00050
C123      0.01500   0.01200   0.01000  -0.00200  -0.00100  -0.00200
C124      0.01000   0.01500   0.01600  -0.00400   0.00400  -0.00300
O126      0.01360   0.01900   0.01600   0.00430  -0.00110  -0.00800
O127      0.01700   0.01500   0.01600   0.00310   0.00380   0.00120
O128      0.01210   0.01900   0.01700  -0.00140   0.00390  -0.00060
O129      0.01800   0.01900   0.01500  -0.00480   0.00020   0.00300
O130      0.06000   0.05200   0.02700  -0.02900   0.01100  -0.00400
Zn131     0.01490   0.01390   0.01180   0.00220   0.00030   0.00080
P132      0.01070   0.01400   0.00880   0.00100   0.00040  -0.00050
C133      0.01500   0.01200   0.01000  -0.00200  -0.00100  -0.00200
C134      0.01000   0.01500   0.01600  -0.00400   0.00400  -0.00300
O136      0.01360   0.01900   0.01600   0.00430  -0.00110  -0.00800
O137      0.01700   0.01500   0.01600   0.00310   0.00380   0.00120
O138      0.01210   0.01900   0.01700  -0.00140   0.00390  -0.00060
O139      0.01800   0.01900   0.01500  -0.00480   0.00020   0.00300
O140      0.06000   0.05200   0.02700  -0.02900   0.01100  -0.00400
Zn141     0.01490   0.01390   0.01180   0.00220  -0.00030  -0.00080
P142      0.01070   0.01400   0.00880   0.00100  -0.00040   0.00050
C143      0.01500   0.01200   0.01000  -0.00200   0.00100   0.00200
C144      0.01000   0.01500   0.01600  -0.00400  -0.00400   0.00300
O146      0.01360   0.01900   0.01600   0.00430   0.00110   0.00800
O147      0.01700   0.01500   0.01600   0.00310  -0.00380  -0.00120
O148      0.01210   0.01900   0.01700  -0.00140  -0.00390   0.00060
O149      0.01800   0.01900   0.01500  -0.00480  -0.00020  -0.00300
O150      0.06000   0.05200   0.02700  -0.02900  -0.01100   0.00400
Zn151     0.01490   0.01390   0.01180   0.00220  -0.00030  -0.00080
P152      0.01070   0.01400   0.00880   0.00100  -0.00040   0.00050
C153      0.01500   0.01200   0.01000  -0.00200   0.00100   0.00200
C154      0.01000   0.01500   0.01600  -0.00400  -0.00400   0.00300
O156      0.01360   0.01900   0.01600   0.00430   0.00110   0.00800
O157      0.01700   0.01500   0.01600   0.00310  -0.00380  -0.00120
O158      0.01210   0.01900   0.01700  -0.00140  -0.00390   0.00060
O159      0.01800   0.01900   0.01500  -0.00480  -0.00020  -0.00300
O160      0.06000   0.05200   0.02700  -0.02900  -0.01100   0.00400
Zn161     0.01750   0.02620   0.02400   0.00000   0.00000   0.01040
Zn162     0.01750   0.02620   0.02400   0.00000   0.00000   0.01040
Zn163     0.01750   0.02620   0.02400   0.00000   0.00000  -0.01040
Zn164     0.01750   0.02620   0.02400   0.00000   0.00000  -0.01040
Zn165     0.01750   0.02620   0.02400   0.00000   0.00000   0.01040
Zn166     0.01750   0.02620   0.02400   0.00000   0.00000   0.01040
Zn167     0.01750   0.02620   0.02400   0.00000   0.00000  -0.01040
Zn168     0.01750   0.02620   0.02400   0.00000   0.00000  -0.01040
P169      0.01540   0.01230   0.00820   0.00000   0.00000  -0.00080
C170      0.01500   0.01300   0.00900   0.00000   0.00000   0.00400
C172      0.01300   0.01000   0.01200   0.00000   0.00000  -0.00200
O173      0.01700   0.01800   0.00700   0.00000   0.00000   0.00200
P174      0.01540   0.01230   0.00820   0.00000   0.00000  -0.00080
C175      0.01500   0.01300   0.00900   0.00000   0.00000   0.00400
C177      0.01300   0.01000   0.01200   0.00000   0.00000  -0.00200
O178      0.01700   0.01800   0.00700   0.00000   0.00000   0.00200
P179      0.01540   0.01230   0.00820   0.00000   0.00000   0.00080
C180      0.01500   0.01300   0.00900   0.00000   0.00000  -0.00400
C182      0.01300   0.01000   0.01200   0.00000   0.00000   0.00200
O183      0.01700   0.01800   0.00700   0.00000   0.00000  -0.00200
P184      0.01540   0.01230   0.00820   0.00000   0.00000   0.00080
C185      0.01500   0.01300   0.00900   0.00000   0.00000  -0.00400
C187      0.01300   0.01000   0.01200   0.00000   0.00000   0.00200
O188      0.01700   0.01800   0.00700   0.00000   0.00000  -0.00200
P189      0.01540   0.01230   0.00820   0.00000   0.00000   0.00080
C190      0.01500   0.01300   0.00900   0.00000   0.00000  -0.00400
C192      0.01300   0.01000   0.01200   0.00000   0.00000   0.00200
O193      0.01700   0.01800   0.00700   0.00000   0.00000  -0.00200
P194      0.01540   0.01230   0.00820   0.00000   0.00000   0.00080
C195      0.01500   0.01300   0.00900   0.00000   0.00000  -0.00400
C197      0.01300   0.01000   0.01200   0.00000   0.00000   0.00200
O198      0.01700   0.01800   0.00700   0.00000   0.00000  -0.00200
P199      0.01540   0.01230   0.00820   0.00000   0.00000  -0.00080
C200      0.01500   0.01300   0.00900   0.00000   0.00000   0.00400
C202      0.01300   0.01000   0.01200   0.00000   0.00000  -0.00200
O203      0.01700   0.01800   0.00700   0.00000   0.00000   0.00200
P204      0.01540   0.01230   0.00820   0.00000   0.00000  -0.00080
C205      0.01500   0.01300   0.00900   0.00000   0.00000   0.00400
C207      0.01300   0.01000   0.01200   0.00000   0.00000  -0.00200
O208      0.01700   0.01800   0.00700   0.00000   0.00000   0.00200
loop_
_geom_bond_atom_site_label_1
_geom_bond_atom_site_label_2
_geom_bond_distance
_geom_bond_site_symmetry_2
_ccdc_geom_bond_type
Zn1    O7      1.937   .     S
Zn1    O106    1.907   .     S
Zn1    O129    1.933   .     S
Zn1    O203    2.015   .     S
P2     C3      1.800   .     S
P2     O6      1.530   .     S
P2     O7      1.523   .     S
P2     O8      1.527   .     S
C3     C4      1.385   1_556 S
C3     C170    1.400   .     S
C4     C3      1.385   1_554 S
C4     H5      0.931   .     S
C4     C172    1.406   .     S
O6     Zn101   1.907   .     S
O8     Zn161   1.919   1_556 S
O9     P169    1.513   .     S
O9     Zn121   1.933   1_565 S
O10    Zn161   2.038   .     S
Zn11   O17     1.937   .     S
Zn11   O116    1.907   .     S
Zn11   O139    1.933   1_565 S
Zn11   O208    2.015   .     S
P12    C13     1.800   .     S
P12    O16     1.530   .     S
P12    O17     1.523   1_545 S
P12    O18     1.527   .     S
C13    C14     1.385   1_556 S
C13    C175    1.400   .     S
C14    C13     1.385   1_554 S
C14    H15     0.931   .     S
C14    C177    1.406   .     S
O16    Zn111   1.907   .     S
O17    P12     1.523   1_565 S
O18    Zn162   1.919   1_556 S
O19    P174    1.513   .     S
O19    Zn131   1.933   .     S
O20    Zn162   2.038   .     S
Zn21   O27     1.937   .     S
Zn21   O86     1.907   .     S
Zn21   O149    1.933   1_545 S
Zn21   O193    2.015   .     S
P22    C23     1.800   .     S
P22    O26     1.530   .     S
P22    O27     1.523   1_565 S
P22    O28     1.527   .     S
C23    C24     1.385   .     S
C23    C180    1.400   .     S
C24    H25     0.931   .     S
C24    C182    1.406   .     S
O26    Zn81    1.907   .     S
O27    P22     1.523   1_545 S
O28    Zn163   1.919   1_565 S
O29    P179    1.513   .     S
O29    Zn141   1.933   .     S
O30    Zn163   2.038   1_565 S
Zn31   O37     1.937   .     S
Zn31   O96     1.907   .     S
Zn31   O159    1.933   .     S
Zn31   O198    2.015   .     S
P32    C33     1.800   .     S
P32    O36     1.530   .     S
P32    O37     1.523   .     S
P32    O38     1.527   .     S
C33    C34     1.385   .     S
C33    C185    1.400   .     S
C34    H35     0.931   .     S
C34    C187    1.406   .     S
O36    Zn91    1.907   .     S
O38    Zn164   1.919   .     S
O39    P184    1.513   .     S
O39    Zn151   1.933   1_545 S
O40    Zn164   2.038   .     S
Zn41   O47     1.937   .     S
Zn41   O146    1.907   .     S
Zn41   O89     1.933   1_565 S
Zn41   O183    2.015   .     S
P42    C43     1.800   .     S
P42    O46     1.530   .     S
P42    O47     1.523   1_545 S
P42    O48     1.527   .     S
C43    C44     1.385   .     S
C43    C190    1.400   .     S
C44    H45     0.931   .     S
C44    C192    1.406   .     S
O46    Zn141   1.907   .     S
O47    P42     1.523   1_565 S
O48    Zn163   1.919   .     S
O49    P189    1.513   .     S
O49    Zn81    1.933   .     S
O50    Zn163   2.038   .     S
Zn51   O57     1.937   .     S
Zn51   O156    1.907   .     S
Zn51   O99     1.933   .     S
Zn51   O188    2.015   .     S
P52    C53     1.800   .     S
P52    O56     1.530   .     S
P52    O57     1.523   .     S
P52    O58     1.527   .     S
C53    C54     1.385   .     S
C53    C195    1.400   .     S
C54    H55     0.931   .     S
C54    C197    1.406   .     S
O56    Zn151   1.907   .     S
O58    Zn164   1.919   .     S
O59    P194    1.513   .     S
O59    Zn91    1.933   1_565 S
O60    Zn164   2.038   .     S
Zn61   O67     1.937   .     S
Zn61   O126    1.907   .     S
Zn61   O109    1.933   .     S
Zn61   O173    2.015   .     S
P62    C63     1.800   .     S
P62    O66     1.530   .     S
P62    O67     1.523   .     S
P62    O68     1.527   .     S
C63    C64     1.385   1_554 S
C63    C200    1.400   .     S
C64    C63     1.385   1_556 S
C64    H65     0.931   .     S
C64    C202    1.406   .     S
O66    Zn121   1.907   .     S
O68    Zn161   1.919   .     S
O69    P199    1.513   .     S
O69    Zn101   1.933   1_545 S
O70    Zn161   2.038   1_556 S
Zn71   O77     1.937   .     S
Zn71   O136    1.907   .     S
Zn71   O119    1.933   1_545 S
Zn71   O178    2.015   .     S
P72    C73     1.800   .     S
P72    O76     1.530   .     S
P72    O77     1.523   1_565 S
P72    O78     1.527   .     S
C73    C74     1.385   1_554 S
C73    C205    1.400   .     S
C74    C73     1.385   1_556 S
C74    H75     0.931   .     S
C74    C207    1.406   .     S
O76    Zn131   1.907   .     S
O77    P72     1.523   1_545 S
O78    Zn162   1.919   1_565 S
O79    P204    1.513   .     S
O79    Zn111   1.933   .     S
O80    Zn162   2.038   1_566 S
Zn81   O87     1.937   .     S
Zn81   O173    2.015   .     S
P82    C83     1.800   .     S
P82    O86     1.530   .     S
P82    O87     1.523   .     S
P82    O88     1.527   .     S
C83    C84     1.385   1_554 S
C83    C200    1.400   .     S
C84    C83     1.385   1_556 S
C84    H85     0.931   .     S
C84    C202    1.406   .     S
O88    Zn165   1.919   .     S
O89    P199    1.513   .     S
O89    Zn41    1.933   1_545 S
O90    Zn165   2.038   1_556 S
Zn91   O97     1.937   .     S
Zn91   O59     1.933   1_545 S
Zn91   O178    2.015   .     S
P92    C93     1.800   .     S
P92    O96     1.530   .     S
P92    O97     1.523   1_565 S
P92    O98     1.527   .     S
C93    C94     1.385   1_554 S
C93    C205    1.400   .     S
C94    C93     1.385   1_556 S
C94    H95     0.931   .     S
C94    C207    1.406   .     S
O97    P92     1.523   1_545 S
O98    Zn166   1.919   1_565 S
O99    P204    1.513   .     S
O100   Zn166   2.038   1_566 S
Zn101  O107    1.937   .     S
Zn101  O69     1.933   1_565 S
Zn101  O183    2.015   .     S
P102   C103    1.800   .     S
P102   O106    1.530   .     S
P102   O107    1.523   1_545 S
P102   O108    1.527   .     S
C103   C104    1.385   .     S
C103   C190    1.400   .     S
C104   H105    0.931   .     S
C104   C192    1.406   .     S
O107   P102    1.523   1_565 S
O108   Zn167   1.919   .     S
O109   P189    1.513   .     S
O110   Zn167   2.038   .     S
Zn111  O117    1.937   .     S
Zn111  O188    2.015   .     S
P112   C113    1.800   .     S
P112   O116    1.530   .     S
P112   O117    1.523   .     S
P112   O118    1.527   .     S
C113   C114    1.385   .     S
C113   C195    1.400   .     S
C114   H115    0.931   .     S
C114   C197    1.406   .     S
O118   Zn168   1.919   .     S
O119   P194    1.513   .     S
O119   Zn71    1.933   1_565 S
O120   Zn168   2.038   .     S
Zn121  O127    1.937   .     S
Zn121  O9      1.933   1_545 S
Zn121  O193    2.015   .     S
P122   C123    1.800   .     S
P122   O126    1.530   .     S
P122   O127    1.523   1_565 S
P122   O128    1.527   .     S
C123   C124    1.385   .     S
C123   C180    1.400   .     S
C124   H125    0.931   .     S
C124   C182    1.406   .     S
O127   P122    1.523   1_545 S
O128   Zn167   1.919   1_565 S
O129   P179    1.513   .     S
O130   Zn167   2.038   1_565 S
Zn131  O137    1.937   .     S
Zn131  O198    2.015   .     S
P132   C133    1.800   .     S
P132   O136    1.530   .     S
P132   O137    1.523   .     S
P132   O138    1.527   .     S
C133   C134    1.385   .     S
C133   C185    1.400   .     S
C134   H135    0.931   .     S
C134   C187    1.406   .     S
O138   Zn168   1.919   .     S
O139   P184    1.513   .     S
O139   Zn11    1.933   1_545 S
O140   Zn168   2.038   .     S
Zn141  O147    1.937   .     S
Zn141  O203    2.015   .     S
P142   C143    1.800   .     S
P142   O146    1.530   .     S
P142   O147    1.523   .     S
P142   O148    1.527   .     S
C143   C144    1.385   1_556 S
C143   C170    1.400   .     S
C144   C143    1.385   1_554 S
C144   H145    0.931   .     S
C144   C172    1.406   .     S
O148   Zn165   1.919   1_556 S
O149   P169    1.513   .     S
O149   Zn21    1.933   1_565 S
O150   Zn165   2.038   .     S
Zn151  O157    1.937   .     S
Zn151  O39     1.933   1_565 S
Zn151  O208    2.015   .     S
P152   C153    1.800   .     S
P152   O156    1.530   .     S
P152   O157    1.523   1_545 S
P152   O158    1.527   .     S
C153   C154    1.385   1_556 S
C153   C175    1.400   .     S
C154   C153    1.385   1_554 S
C154   H155    0.931   .     S
C154   C177    1.406   .     S
O157   P152    1.523   1_565 S
O158   Zn166   1.919   1_556 S
O159   P174    1.513   .     S
O160   Zn166   2.038   .     S
Zn161  O8      1.919   1_554 S
Zn161  O70     2.038   1_554 S
Zn162  O18     1.919   1_554 S
Zn162  O78     1.919   1_545 S
Zn162  O80     2.038   1_544 S
Zn163  O28     1.919   1_545 S
Zn163  O30     2.038   1_545 S
Zn165  O148    1.919   1_554 S
Zn165  O90     2.038   1_554 S
Zn166  O98     1.919   1_545 S
Zn166  O158    1.919   1_554 S
Zn166  O100    2.038   1_544 S
Zn167  O128    1.919   1_545 S
Zn167  O130    2.038   1_545 S
P169   C172    1.793   .     S
P169   O173    1.576   .     S
C170   H171    0.930   .     S
P174   C177    1.793   .     S
P174   O178    1.576   .     S
C175   H176    0.930   .     S
P179   C182    1.793   .     S
P179   O183    1.576   .     S
C180   H181    0.930   .     S
P184   C187    1.793   .     S
P184   O188    1.576   .     S
C185   H186    0.930   .     S
P189   C192    1.793   .     S
P189   O193    1.576   .     S
C190   H191    0.930   .     S
P194   C197    1.793   .     S
P194   O198    1.576   .     S
C195   H196    0.930   .     S
P199   C202    1.793   .     S
P199   O203    1.576   .     S
C200   H201    0.930   .     S
P204   C207    1.793   .     S
P204   O208    1.576   .     S
C205   H206    0.930   .     S
