data_ASEHUE_FSR
_audit_creation_date              2024-06-11
_audit_creation_method            'Materials Studio'
_symmetry_space_group_name_H-M    'P1'
_symmetry_Int_Tables_number       1
_symmetry_cell_setting            triclinic
loop_
_symmetry_equiv_pos_as_xyz
  x,y,z
_cell_length_a                    16.7352
_cell_length_b                    13.4138
_cell_length_c                    11.1222
_cell_angle_alpha                 90.0000
_cell_angle_beta                  95.9960
_cell_angle_gamma                 90.0000
loop_
_atom_site_label
_atom_site_type_symbol
_atom_site_fract_x
_atom_site_fract_y
_atom_site_fract_z
_atom_site_U_iso_or_equiv
_atom_site_adp_type
_atom_site_occupancy
N1     N     0.49430   0.63530   0.58520   0.06000  Uiso   1.00
N2     N     0.40490   0.45140   0.59330   0.06400  Uiso   1.00
C3     C     0.44310   0.66660   0.66760   0.05100  Uiso   1.00
C4     C     0.38120   0.60910   0.70700   0.06100  Uiso   1.00
C5     C     0.32540   0.65460   0.78720   0.07200  Uiso   1.00
C6     C     0.24490   0.66730   0.74030   0.06000  Uiso   1.00
H7     H     0.22770   0.64620   0.66220   0.07200  Uiso   1.00
C8     C     0.19160   0.71100   0.81010   0.05800  Uiso   1.00
C9     C     0.21710   0.74360   0.92740   0.04600  Uiso   1.00
H10    H     0.18030   0.77020   0.97570   0.05500  Uiso   1.00
C11    C     0.29730   0.73600   0.97090   0.05900  Uiso   1.00
H12    H     0.31480   0.75940   0.04790   0.07100  Uiso   1.00
C13    C     0.35240   0.69300   0.89910   0.06400  Uiso   1.00
H14    H     0.40680   0.69050   0.92690   0.07700  Uiso   1.00
C15    C     0.36180   0.50700   0.67210   0.07300  Uiso   1.00
C16    C     0.29550   0.44680   0.70730   0.05700  Uiso   1.00
H17    H     0.25780   0.46690   0.75810   0.06800  Uiso   1.00
C18    C     0.29820   0.35910   0.65480   0.05800  Uiso   1.00
H19    H     0.26310   0.30630   0.66230   0.07000  Uiso   1.00
C20    C     0.36500   0.35970   0.58390   0.06400  Uiso   1.00
C21    C     0.38810   0.28060   0.51710   0.06800  Uiso   1.00
C22    C     0.34530   0.18420   0.52990   0.05800  Uiso   1.00
C23    C     0.38260   0.10450   0.59050   0.05700  Uiso   1.00
H24    H     0.43740   0.10690   0.61530   0.06800  Uiso   1.00
C25    C     0.33780   0.01940   0.61490   0.06700  Uiso   1.00
H26    H     0.36160   0.96720   0.66050   0.08000  Uiso   1.00
C27    C     0.25690   0.01490   0.56930   0.05800  Uiso   1.00
H28    H     0.22730   0.95770   0.58090   0.07000  Uiso   1.00
C29    C     0.22080   0.09410   0.50770   0.06600  Uiso   1.00
C30    C     0.26360   0.17930   0.48780   0.05900  Uiso   1.00
H31    H     0.23840   0.23300   0.44680   0.07100  Uiso   1.00
C32    C     0.54370   0.71680   0.57230   0.04900  Uiso   1.00
C33    C     0.52100   0.79940   0.64490   0.05800  Uiso   1.00
H34    H     0.54490   0.86210   0.65100   0.07000  Uiso   1.00
C35    C     0.45870   0.76800   0.70190   0.04700  Uiso   1.00
H36    H     0.43080   0.80540   0.75420   0.05600  Uiso   1.00
P37    P     0.08590   0.71430   0.75980   0.05000  Uiso   1.00
O38    O     0.04540   0.74820   0.86880   0.06000  Uiso   1.00
O39    O     0.06360   0.61060   0.71790   0.05800  Uiso   1.00
O40    O     0.07680   0.79110   0.65920   0.05700  Uiso   1.00
P41    P     0.11780   0.06550   0.45840   0.04400  Uiso   1.00
O42    O     0.07050   0.15650   0.48760   0.05700  Uiso   1.00
O43    O     0.11540   0.05000   0.32050   0.05900  Uiso   1.00
H44    H     0.12050   0.99050   0.30610   0.08900  Uiso   1.00
O45    O     0.09960   0.97340   0.52160   0.06200  Uiso   1.00
Zn46   Zn    0.95790   0.15570   0.49620   0.05400  Uiso   1.00
N47    N     0.50570   0.13530   0.91480   0.06000  Uiso   1.00
N48    N     0.59510   0.95140   0.90670   0.06400  Uiso   1.00
C49    C     0.55690   0.16660   0.83240   0.05100  Uiso   1.00
C50    C     0.61880   0.10910   0.79300   0.06100  Uiso   1.00
C51    C     0.67460   0.15460   0.71280   0.07200  Uiso   1.00
C52    C     0.75510   0.16730   0.75970   0.06000  Uiso   1.00
H53    H     0.77230   0.14620   0.83780   0.07200  Uiso   1.00
C54    C     0.80840   0.21100   0.68990   0.05800  Uiso   1.00
C55    C     0.78290   0.24360   0.57260   0.04600  Uiso   1.00
H56    H     0.81970   0.27020   0.52430   0.05500  Uiso   1.00
C57    C     0.70270   0.23600   0.52910   0.05900  Uiso   1.00
H58    H     0.68520   0.25940   0.45210   0.07100  Uiso   1.00
C59    C     0.64760   0.19300   0.60090   0.06400  Uiso   1.00
H60    H     0.59320   0.19050   0.57310   0.07700  Uiso   1.00
C61    C     0.63820   0.00700   0.82790   0.07300  Uiso   1.00
C62    C     0.70450   0.94680   0.79270   0.05700  Uiso   1.00
H63    H     0.74220   0.96690   0.74190   0.06800  Uiso   1.00
C64    C     0.70180   0.85910   0.84520   0.05800  Uiso   1.00
H65    H     0.73690   0.80630   0.83770   0.07000  Uiso   1.00
C66    C     0.63500   0.85970   0.91610   0.06400  Uiso   1.00
C67    C     0.61190   0.78060   0.98290   0.06800  Uiso   1.00
C68    C     0.65470   0.68420   0.97010   0.05800  Uiso   1.00
C69    C     0.61740   0.60450   0.90950   0.05700  Uiso   1.00
H70    H     0.56260   0.60690   0.88470   0.06800  Uiso   1.00
C71    C     0.66220   0.51940   0.88510   0.06700  Uiso   1.00
H72    H     0.63840   0.46720   0.83950   0.08000  Uiso   1.00
C73    C     0.74310   0.51490   0.93070   0.05800  Uiso   1.00
H74    H     0.77270   0.45770   0.91910   0.07000  Uiso   1.00
C75    C     0.77920   0.59410   0.99230   0.06600  Uiso   1.00
C76    C     0.73640   0.67930   0.01220   0.05900  Uiso   1.00
H77    H     0.76160   0.73300   0.05320   0.07100  Uiso   1.00
C78    C     0.45630   0.21680   0.92770   0.04900  Uiso   1.00
C79    C     0.47900   0.29940   0.85510   0.05800  Uiso   1.00
H80    H     0.45510   0.36210   0.84900   0.07000  Uiso   1.00
C81    C     0.54130   0.26800   0.79810   0.04700  Uiso   1.00
H82    H     0.56920   0.30540   0.74580   0.05600  Uiso   1.00
P83    P     0.91410   0.21430   0.74020   0.05000  Uiso   1.00
O84    O     0.95460   0.24820   0.63120   0.06000  Uiso   1.00
O85    O     0.93640   0.11060   0.78210   0.05800  Uiso   1.00
O86    O     0.92320   0.29110   0.84080   0.05700  Uiso   1.00
P87    P     0.88220   0.56550   0.04160   0.04400  Uiso   1.00
O88    O     0.92950   0.65650   0.01240   0.05700  Uiso   1.00
O89    O     0.88460   0.55000   0.17950   0.05900  Uiso   1.00
H90    H     0.87950   0.49050   0.19390   0.08900  Uiso   1.00
O91    O     0.90040   0.47340   0.97840   0.06200  Uiso   1.00
Zn92   Zn    0.04210   0.65570   0.00380   0.05400  Uiso   1.00
N93    N     0.50570   0.36470   0.41480   0.06000  Uiso   1.00
N94    N     0.59510   0.54860   0.40670   0.06400  Uiso   1.00
C95    C     0.55690   0.33340   0.33240   0.05100  Uiso   1.00
C96    C     0.61880   0.39090   0.29300   0.06100  Uiso   1.00
C97    C     0.67460   0.34540   0.21280   0.07200  Uiso   1.00
C98    C     0.75510   0.33270   0.25970   0.06000  Uiso   1.00
H99    H     0.77230   0.35380   0.33780   0.07200  Uiso   1.00
C100   C     0.80840   0.28900   0.18990   0.05800  Uiso   1.00
C101   C     0.78290   0.25640   0.07260   0.04600  Uiso   1.00
H102   H     0.81970   0.22980   0.02430   0.05500  Uiso   1.00
C103   C     0.70270   0.26400   0.02910   0.05900  Uiso   1.00
H104   H     0.68520   0.24060   0.95210   0.07100  Uiso   1.00
C105   C     0.64760   0.30700   0.10090   0.06400  Uiso   1.00
H106   H     0.59320   0.30950   0.07310   0.07700  Uiso   1.00
C107   C     0.63820   0.49300   0.32790   0.07300  Uiso   1.00
C108   C     0.70450   0.55320   0.29270   0.05700  Uiso   1.00
H109   H     0.74220   0.53310   0.24190   0.06800  Uiso   1.00
C110   C     0.70180   0.64090   0.34520   0.05800  Uiso   1.00
H111   H     0.73690   0.69370   0.33770   0.07000  Uiso   1.00
C112   C     0.63500   0.64030   0.41610   0.06400  Uiso   1.00
C113   C     0.61190   0.71940   0.48290   0.06800  Uiso   1.00
C114   C     0.65470   0.81580   0.47010   0.05800  Uiso   1.00
C115   C     0.61740   0.89550   0.40950   0.05700  Uiso   1.00
H116   H     0.56260   0.89310   0.38470   0.06800  Uiso   1.00
C117   C     0.66220   0.98060   0.38510   0.06700  Uiso   1.00
H118   H     0.63840   0.03280   0.33950   0.08000  Uiso   1.00
C119   C     0.74310   0.98510   0.43070   0.05800  Uiso   1.00
H120   H     0.77270   0.04230   0.41910   0.07000  Uiso   1.00
C121   C     0.77920   0.90590   0.49230   0.06600  Uiso   1.00
C122   C     0.73640   0.82070   0.51220   0.05900  Uiso   1.00
H123   H     0.76160   0.76700   0.55320   0.07100  Uiso   1.00
C124   C     0.45630   0.28320   0.42770   0.04900  Uiso   1.00
C125   C     0.47900   0.20060   0.35510   0.05800  Uiso   1.00
H126   H     0.45510   0.13790   0.34900   0.07000  Uiso   1.00
C127   C     0.54130   0.23200   0.29810   0.04700  Uiso   1.00
H128   H     0.56920   0.19460   0.24580   0.05600  Uiso   1.00
P129   P     0.91410   0.28570   0.24020   0.05000  Uiso   1.00
O130   O     0.95460   0.25180   0.13120   0.06000  Uiso   1.00
O131   O     0.93640   0.38940   0.28210   0.05800  Uiso   1.00
O132   O     0.92320   0.20890   0.34080   0.05700  Uiso   1.00
P133   P     0.88220   0.93450   0.54160   0.04400  Uiso   1.00
O134   O     0.92950   0.84350   0.51240   0.05700  Uiso   1.00
O135   O     0.88460   0.95000   0.67950   0.05900  Uiso   1.00
H136   H     0.87950   0.00950   0.69390   0.08900  Uiso   1.00
O137   O     0.90040   0.02660   0.47840   0.06200  Uiso   1.00
Zn138  Zn    0.04210   0.84430   0.50380   0.05400  Uiso   1.00
N139   N     0.49430   0.86470   0.08520   0.06000  Uiso   1.00
N140   N     0.40490   0.04860   0.09330   0.06400  Uiso   1.00
C141   C     0.44310   0.83340   0.16760   0.05100  Uiso   1.00
C142   C     0.38120   0.89090   0.20700   0.06100  Uiso   1.00
C143   C     0.32540   0.84540   0.28720   0.07200  Uiso   1.00
C144   C     0.24490   0.83270   0.24030   0.06000  Uiso   1.00
H145   H     0.22770   0.85380   0.16220   0.07200  Uiso   1.00
C146   C     0.19160   0.78900   0.31010   0.05800  Uiso   1.00
C147   C     0.21710   0.75640   0.42740   0.04600  Uiso   1.00
H148   H     0.18030   0.72980   0.47570   0.05500  Uiso   1.00
C149   C     0.29730   0.76400   0.47090   0.05900  Uiso   1.00
H150   H     0.31480   0.74060   0.54790   0.07100  Uiso   1.00
C151   C     0.35240   0.80700   0.39910   0.06400  Uiso   1.00
H152   H     0.40680   0.80950   0.42690   0.07700  Uiso   1.00
C153   C     0.36180   0.99300   0.17210   0.07300  Uiso   1.00
C154   C     0.29550   0.05320   0.20730   0.05700  Uiso   1.00
H155   H     0.25780   0.03310   0.25810   0.06800  Uiso   1.00
C156   C     0.29820   0.14090   0.15480   0.05800  Uiso   1.00
H157   H     0.26310   0.19370   0.16230   0.07000  Uiso   1.00
C158   C     0.36500   0.14030   0.08390   0.06400  Uiso   1.00
C159   C     0.38810   0.21940   0.01710   0.06800  Uiso   1.00
C160   C     0.34530   0.31580   0.02990   0.05800  Uiso   1.00
C161   C     0.38260   0.39550   0.09050   0.05700  Uiso   1.00
H162   H     0.43740   0.39310   0.11530   0.06800  Uiso   1.00
C163   C     0.33780   0.48060   0.11490   0.06700  Uiso   1.00
H164   H     0.36160   0.53280   0.16050   0.08000  Uiso   1.00
C165   C     0.25690   0.48510   0.06930   0.05800  Uiso   1.00
H166   H     0.22730   0.54230   0.08090   0.07000  Uiso   1.00
C167   C     0.22080   0.40590   0.00770   0.06600  Uiso   1.00
C168   C     0.26360   0.32070   0.98780   0.05900  Uiso   1.00
H169   H     0.23840   0.26700   0.94680   0.07100  Uiso   1.00
C170   C     0.54370   0.78320   0.07230   0.04900  Uiso   1.00
C171   C     0.52100   0.70060   0.14490   0.05800  Uiso   1.00
H172   H     0.54490   0.63790   0.15100   0.07000  Uiso   1.00
C173   C     0.45870   0.73200   0.20190   0.04700  Uiso   1.00
H174   H     0.43080   0.69460   0.25420   0.05600  Uiso   1.00
P175   P     0.08590   0.78570   0.25980   0.05000  Uiso   1.00
O176   O     0.04540   0.75180   0.36880   0.06000  Uiso   1.00
O177   O     0.06360   0.88940   0.21790   0.05800  Uiso   1.00
O178   O     0.07680   0.70890   0.15920   0.05700  Uiso   1.00
P179   P     0.11780   0.43450   0.95840   0.04400  Uiso   1.00
O180   O     0.07050   0.34350   0.98760   0.05700  Uiso   1.00
O181   O     0.11540   0.45000   0.82050   0.05900  Uiso   1.00
H182   H     0.12050   0.50950   0.80610   0.08900  Uiso   1.00
O183   O     0.09960   0.52660   0.02160   0.06200  Uiso   1.00
Zn184  Zn    0.95790   0.34430   0.99620   0.05400  Uiso   1.00
Pd185  Pd    0.50000   0.50000   0.50000   0.04300  Uiso   1.00
Pd186  Pd    0.50000   0.00000   0.00000   0.04300  Uiso   1.00
loop_
_geom_bond_atom_site_label_1
_geom_bond_atom_site_label_2
_geom_bond_distance
_geom_bond_site_symmetry_2
_ccdc_geom_bond_type
N1     Pd185   2.054   .     S
N1     C3      1.384   .     S
N1     C32     1.387   .     S
N2     Pd185   2.093   .     S
N2     C15     1.406   .     S
N2     C20     1.398   .     S
C3     C4      1.398   .     S
C3     C35     1.429   .     S
C4     C5      1.488   .     S
C4     C15     1.451   .     S
C5     C6      1.403   .     S
C5     C13     1.379   .     S
C6     H7      0.930   .     S
C6     C8      1.374   .     S
C8     C9      1.400   .     S
C8     P37     1.799   .     S
C9     H10     0.930   .     S
C9     C11     1.382   .     S
C11    H12     0.930   1_556 S
C11    C13     1.405   .     S
H12    C11     0.930   1_554 S
C13    H14     0.931   .     S
C15    C16     1.458   .     S
C16    H17     0.930   .     S
C16    C18     1.316   .     S
C18    H19     0.929   .     S
C18    C20     1.434   .     S
C20    C21     1.374   .     S
C21    C22     1.492   .     S
C21    C124    1.590   .     S
C22    C23     1.378   .     S
C22    C30     1.400   .     S
C23    H24     0.930   .     S
C23    C25     1.408   .     S
C25    H26     0.929   1_545 S
C25    C27     1.397   .     S
H26    C25     0.929   1_565 S
C27    H28     0.930   1_545 S
C27    C29     1.370   .     S
H28    C27     0.930   1_565 S
C29    P41     1.795   .     S
C29    C30     1.379   .     S
C30    H31     0.930   .     S
C32    C33     1.445   .     S
C32    C113    1.590   .     S
C33    H34     0.931   .     S
C33    C35     1.343   .     S
C35    H36     0.930   .     S
P37    O38     1.519   .     S
P37    O39     1.502   .     S
P37    O40     1.517   .     S
O38    Zn92    1.953   1_556 S
O40    Zn138   1.904   .     S
P41    O42     1.509   .     S
P41    O43     1.544   .     S
P41    O45     1.469   1_545 S
O42    Zn46    1.897   1_455 S
O43    H44     0.820   1_545 S
H44    O43     0.820   1_565 S
O45    P41     1.469   1_565 S
O45    Zn138   1.981   .     S
Zn46   O42     1.897   1_655 S
Zn46   O84     1.953   .     S
Zn46   O132    1.904   .     S
Zn46   O137    1.981   .     S
N47    Pd186   2.054   1_556 S
N47    C49     1.384   .     S
N47    C78     1.387   .     S
N48    Pd186   2.093   1_566 S
N48    C61     1.406   1_565 S
N48    C66     1.398   .     S
C49    C50     1.398   .     S
C49    C81     1.429   .     S
C50    C51     1.488   .     S
C50    C61     1.451   .     S
C51    C52     1.403   .     S
C51    C59     1.379   .     S
C52    H53     0.930   .     S
C52    C54     1.374   .     S
C54    C55     1.400   .     S
C54    P83     1.799   .     S
C55    H56     0.930   .     S
C55    C57     1.382   .     S
C57    H58     0.930   .     S
C57    C59     1.405   .     S
C59    H60     0.931   .     S
C61    N48     1.406   1_545 S
C61    C62     1.458   1_545 S
C62    C61     1.458   1_565 S
C62    H63     0.930   .     S
C62    C64     1.316   .     S
C64    H65     0.929   .     S
C64    C66     1.434   .     S
C66    C67     1.374   .     S
C67    C68     1.492   .     S
C67    C170    1.590   1_556 S
C68    C69     1.378   .     S
C68    C76     1.400   1_556 S
C69    H70     0.930   .     S
C69    C71     1.408   .     S
C71    H72     0.929   .     S
C71    C73     1.397   .     S
C73    H74     0.930   .     S
C73    C75     1.370   .     S
C75    P87     1.795   1_556 S
C75    C76     1.379   1_556 S
C76    C68     1.400   1_554 S
C76    H77     0.930   .     S
C76    C75     1.379   1_554 S
C78    C79     1.445   .     S
C78    C159    1.590   1_556 S
C79    H80     0.931   .     S
C79    C81     1.343   .     S
C81    H82     0.930   .     S
P83    O84     1.519   .     S
P83    O85     1.502   .     S
P83    O86     1.517   .     S
O86    Zn184   1.904   .     S
P87    C75     1.795   1_554 S
P87    O88     1.509   .     S
P87    O89     1.544   .     S
P87    O91     1.469   1_554 S
O88    Zn92    1.897   1_655 S
O89    H90     0.820   .     S
O91    P87     1.469   1_556 S
O91    Zn184   1.981   .     S
Zn92   O88     1.897   1_455 S
Zn92   O38     1.953   1_554 S
Zn92   O178    1.904   .     S
Zn92   O183    1.981   .     S
N93    Pd185   2.054   .     S
N93    C95     1.384   .     S
N93    C124    1.387   .     S
N94    Pd185   2.093   .     S
N94    C107    1.406   .     S
N94    C112    1.398   .     S
C95    C96     1.398   .     S
C95    C127    1.429   .     S
C96    C97     1.488   .     S
C96    C107    1.451   .     S
C97    C98     1.403   .     S
C97    C105    1.379   .     S
C98    H99     0.930   .     S
C98    C100    1.374   .     S
C100   C101    1.400   .     S
C100   P129    1.799   .     S
C101   H102    0.930   .     S
C101   C103    1.382   .     S
C103   H104    0.930   1_554 S
C103   C105    1.405   .     S
H104   C103    0.930   1_556 S
C105   H106    0.931   .     S
C107   C108    1.458   .     S
C108   H109    0.930   .     S
C108   C110    1.316   .     S
C110   H111    0.929   .     S
C110   C112    1.434   .     S
C112   C113    1.374   .     S
C113   C114    1.492   .     S
C114   C115    1.378   .     S
C114   C122    1.400   .     S
C115   H116    0.930   .     S
C115   C117    1.408   .     S
C117   H118    0.929   1_565 S
C117   C119    1.397   .     S
H118   C117    0.929   1_545 S
C119   H120    0.930   1_565 S
C119   C121    1.370   .     S
H120   C119    0.930   1_545 S
C121   P133    1.795   .     S
C121   C122    1.379   .     S
C122   H123    0.930   .     S
C124   C125    1.445   .     S
C125   H126    0.931   .     S
C125   C127    1.343   .     S
C127   H128    0.930   .     S
P129   O130    1.519   .     S
P129   O131    1.502   .     S
P129   O132    1.517   .     S
O130   Zn184   1.953   1_554 S
P133   O134    1.509   .     S
P133   O135    1.544   .     S
P133   O137    1.469   1_565 S
O134   Zn138   1.897   1_655 S
O135   H136    0.820   1_565 S
H136   O135    0.820   1_545 S
O137   P133    1.469   1_545 S
Zn138  O134    1.897   1_455 S
Zn138  O176    1.953   .     S
N139   Pd186   2.054   1_565 S
N139   C141    1.384   .     S
N139   C170    1.387   .     S
N140   Pd186   2.093   .     S
N140   C153    1.406   1_545 S
N140   C158    1.398   .     S
C141   C142    1.398   .     S
C141   C173    1.429   .     S
C142   C143    1.488   .     S
C142   C153    1.451   .     S
C143   C144    1.403   .     S
C143   C151    1.379   .     S
C144   H145    0.930   .     S
C144   C146    1.374   .     S
C146   C147    1.400   .     S
C146   P175    1.799   .     S
C147   H148    0.930   .     S
C147   C149    1.382   .     S
C149   H150    0.930   .     S
C149   C151    1.405   .     S
C151   H152    0.931   .     S
C153   N140    1.406   1_565 S
C153   C154    1.458   1_565 S
C154   C153    1.458   1_545 S
C154   H155    0.930   .     S
C154   C156    1.316   .     S
C156   H157    0.929   .     S
C156   C158    1.434   .     S
C158   C159    1.374   .     S
C159   C160    1.492   .     S
C159   C78     1.590   1_554 S
C160   C161    1.378   .     S
C160   C168    1.400   1_554 S
C161   H162    0.930   .     S
C161   C163    1.408   .     S
C163   H164    0.929   .     S
C163   C165    1.397   .     S
C165   H166    0.930   .     S
C165   C167    1.370   .     S
C167   P179    1.795   1_554 S
C167   C168    1.379   1_554 S
C168   C160    1.400   1_556 S
C168   H169    0.930   .     S
C168   C167    1.379   1_556 S
C170   C171    1.445   .     S
C170   C67     1.590   1_554 S
C171   H172    0.931   .     S
C171   C173    1.343   .     S
C173   H174    0.930   .     S
P175   O176    1.519   .     S
P175   O177    1.502   .     S
P175   O178    1.517   .     S
P179   C167    1.795   1_556 S
P179   O180    1.509   .     S
P179   O181    1.544   .     S
P179   O183    1.469   1_556 S
O180   Zn184   1.897   1_455 S
O181   H182    0.820   .     S
O183   P179    1.469   1_554 S
Zn184  O180    1.897   1_655 S
Zn184  O130    1.953   1_556 S
Pd186  N47     2.054   1_554 S
Pd186  N139    2.054   1_545 S
Pd186  N48     2.093   1_544 S
