data_BAMMUA_FSR
_audit_creation_date              2024-06-11
_audit_creation_method            'Materials Studio'
_symmetry_space_group_name_H-M    'P1'
_symmetry_Int_Tables_number       1
_symmetry_cell_setting            triclinic
loop_
_symmetry_equiv_pos_as_xyz
  x,y,z
_cell_length_a                    19.6130
_cell_length_b                    19.6130
_cell_length_c                    13.8490
_cell_angle_alpha                 90.0000
_cell_angle_beta                  90.0000
_cell_angle_gamma                 120.0000
loop_
_atom_site_label
_atom_site_type_symbol
_atom_site_fract_x
_atom_site_fract_y
_atom_site_fract_z
_atom_site_U_iso_or_equiv
_atom_site_adp_type
_atom_site_occupancy
N1     N     0.59190   0.22020   0.60020   0.07189  Uani   1.00
N2     N     0.52580   0.19200   0.66070   0.06722  Uani   1.00
C3     C     0.57970   0.16290   0.54420   0.08100  Uani   1.00
N4     N     0.50740   0.09460   0.56450   0.08178  Uani   1.00
C5     C     0.47940   0.11840   0.63710   0.07889  Uani   1.00
C6     C     0.40100   0.06020   0.67240   0.18600  Uani   1.00
H7     H     0.37377   0.02382   0.61903   0.22300  Uiso   1.00
C8     C     0.63410   0.16790   0.47420   0.14922  Uani   1.00
H9     H     0.67659   0.22206   0.48502   0.17900  Uiso   1.00
O10    O     0.39730   0.01390   0.75320   0.30711  Uani   1.00
H11    H     0.43017   0.00005   0.74711   0.46100  Uiso   1.00
C12    C     0.35430   0.10070   0.69600   0.31711  Uani   1.00
H13    H     0.30304   0.06246   0.71938   0.47700  Uiso   1.00
H14    H     0.38135   0.13977   0.74527   0.47700  Uiso   1.00
H15    H     0.34896   0.12556   0.63931   0.47700  Uiso   1.00
C16    C     0.61480   0.17350   0.36930   0.20844  Uani   1.00
H17    H     0.65600   0.17660   0.32874   0.31100  Uiso   1.00
H18    H     0.56587   0.12767   0.35245   0.31100  Uiso   1.00
H19    H     0.61053   0.21972   0.36040   0.31100  Uiso   1.00
O20    O     0.67740   0.12770   0.47780   0.27456  Uani   1.00
H21    H     0.65204   0.08467   0.45158   0.41200  Uiso   1.00
N22    N     0.77980   0.37170   0.60020   0.07189  Uani   1.00
N23    N     0.80800   0.33380   0.66070   0.06722  Uani   1.00
C24    C     0.83710   0.41680   0.54420   0.08100  Uani   1.00
N25    N     0.90540   0.41280   0.56450   0.08178  Uani   1.00
C26    C     0.88160   0.36100   0.63710   0.07889  Uani   1.00
C27    C     0.93980   0.34080   0.67240   0.18600  Uani   1.00
H28    H     0.97618   0.34995   0.61903   0.22300  Uiso   1.00
C29    C     0.83210   0.46620   0.47420   0.14922  Uani   1.00
H30    H     0.77794   0.45453   0.48502   0.17900  Uiso   1.00
O31    O     0.98610   0.38340   0.75320   0.30711  Uani   1.00
H32    H     0.99995   0.43011   0.74711   0.46100  Uiso   1.00
C33    C     0.89930   0.25360   0.69600   0.31711  Uani   1.00
H34    H     0.93754   0.24058   0.71938   0.47700  Uiso   1.00
H35    H     0.86023   0.24158   0.74527   0.47700  Uiso   1.00
H36    H     0.87444   0.22340   0.63931   0.47700  Uiso   1.00
C37    C     0.82650   0.44130   0.36930   0.20844  Uani   1.00
H38    H     0.82340   0.47941   0.32874   0.31100  Uiso   1.00
H39    H     0.87233   0.43820   0.35245   0.31100  Uiso   1.00
H40    H     0.78028   0.39081   0.36040   0.31100  Uiso   1.00
O41    O     0.87230   0.54970   0.47780   0.27456  Uani   1.00
H42    H     0.91533   0.56737   0.45158   0.41200  Uiso   1.00
N43    N     0.62830   0.40810   0.60020   0.07189  Uani   1.00
N44    N     0.66620   0.47420   0.66070   0.06722  Uani   1.00
C45    C     0.58320   0.42030   0.54420   0.08100  Uani   1.00
N46    N     0.58720   0.49260   0.56450   0.08178  Uani   1.00
C47    C     0.63900   0.52060   0.63710   0.07889  Uani   1.00
C48    C     0.65920   0.59900   0.67240   0.18600  Uani   1.00
H49    H     0.65005   0.62623   0.61903   0.22300  Uiso   1.00
C50    C     0.53380   0.36590   0.47420   0.14922  Uani   1.00
H51    H     0.54547   0.32341   0.48502   0.17900  Uiso   1.00
O52    O     0.61660   0.60270   0.75320   0.30711  Uani   1.00
H53    H     0.56989   0.56983   0.74711   0.46100  Uiso   1.00
C54    C     0.74640   0.64570   0.69600   0.31711  Uani   1.00
H55    H     0.75942   0.69696   0.71938   0.47700  Uiso   1.00
H56    H     0.75842   0.61865   0.74527   0.47700  Uiso   1.00
H57    H     0.77660   0.65104   0.63931   0.47700  Uiso   1.00
C58    C     0.55870   0.38520   0.36930   0.20844  Uani   1.00
H59    H     0.52059   0.34400   0.32874   0.31100  Uiso   1.00
H60    H     0.56180   0.43413   0.35245   0.31100  Uiso   1.00
H61    H     0.60919   0.38947   0.36040   0.31100  Uiso   1.00
O62    O     0.45030   0.32260   0.47780   0.27456  Uani   1.00
H63    H     0.43263   0.34796   0.45158   0.41200  Uiso   1.00
N64    N     0.40810   0.77980   0.10020   0.07189  Uani   1.00
N65    N     0.47420   0.80800   0.16070   0.06722  Uani   1.00
C66    C     0.42030   0.83710   0.04420   0.08100  Uani   1.00
N67    N     0.49260   0.90540   0.06450   0.08178  Uani   1.00
C68    C     0.52060   0.88160   0.13710   0.07889  Uani   1.00
C69    C     0.59900   0.93980   0.17240   0.18600  Uani   1.00
H70    H     0.62623   0.97618   0.11903   0.22300  Uiso   1.00
C71    C     0.36590   0.83210   0.97420   0.14922  Uani   1.00
H72    H     0.32341   0.77794   0.98502   0.17900  Uiso   1.00
O73    O     0.60270   0.98610   0.25320   0.30711  Uani   1.00
H74    H     0.56983   0.99995   0.24711   0.46100  Uiso   1.00
C75    C     0.64570   0.89930   0.19600   0.31711  Uani   1.00
H76    H     0.69696   0.93754   0.21938   0.47700  Uiso   1.00
H77    H     0.61865   0.86023   0.24527   0.47700  Uiso   1.00
H78    H     0.65104   0.87444   0.13931   0.47700  Uiso   1.00
C79    C     0.38520   0.82650   0.86930   0.20844  Uani   1.00
H80    H     0.34400   0.82340   0.82874   0.31100  Uiso   1.00
H81    H     0.43413   0.87233   0.85245   0.31100  Uiso   1.00
H82    H     0.38947   0.78028   0.86040   0.31100  Uiso   1.00
O83    O     0.32260   0.87230   0.97780   0.27456  Uani   1.00
H84    H     0.34796   0.91533   0.95158   0.41200  Uiso   1.00
N85    N     0.22020   0.62830   0.10020   0.07189  Uani   1.00
N86    N     0.19200   0.66620   0.16070   0.06722  Uani   1.00
C87    C     0.16290   0.58320   0.04420   0.08100  Uani   1.00
N88    N     0.09460   0.58720   0.06450   0.08178  Uani   1.00
C89    C     0.11840   0.63900   0.13710   0.07889  Uani   1.00
C90    C     0.06020   0.65920   0.17240   0.18600  Uani   1.00
H91    H     0.02382   0.65005   0.11903   0.22300  Uiso   1.00
C92    C     0.16790   0.53380   0.97420   0.14922  Uani   1.00
H93    H     0.22206   0.54547   0.98502   0.17900  Uiso   1.00
O94    O     0.01390   0.61660   0.25320   0.30711  Uani   1.00
H95    H     0.00005   0.56989   0.24711   0.46100  Uiso   1.00
C96    C     0.10070   0.74640   0.19600   0.31711  Uani   1.00
H97    H     0.06246   0.75942   0.21938   0.47700  Uiso   1.00
H98    H     0.13977   0.75842   0.24527   0.47700  Uiso   1.00
H99    H     0.12556   0.77660   0.13931   0.47700  Uiso   1.00
C100   C     0.17350   0.55870   0.86930   0.20844  Uani   1.00
H101   H     0.17660   0.52059   0.82874   0.31100  Uiso   1.00
H102   H     0.12767   0.56180   0.85245   0.31100  Uiso   1.00
H103   H     0.21972   0.60919   0.86040   0.31100  Uiso   1.00
O104   O     0.12770   0.45030   0.97780   0.27456  Uani   1.00
H105   H     0.08467   0.43263   0.95158   0.41200  Uiso   1.00
N106   N     0.37170   0.59190   0.10020   0.07189  Uani   1.00
N107   N     0.33380   0.52580   0.16070   0.06722  Uani   1.00
C108   C     0.41680   0.57970   0.04420   0.08100  Uani   1.00
N109   N     0.41280   0.50740   0.06450   0.08178  Uani   1.00
C110   C     0.36100   0.47940   0.13710   0.07889  Uani   1.00
C111   C     0.34080   0.40100   0.17240   0.18600  Uani   1.00
H112   H     0.34995   0.37377   0.11903   0.22300  Uiso   1.00
C113   C     0.46620   0.63410   0.97420   0.14922  Uani   1.00
H114   H     0.45453   0.67659   0.98502   0.17900  Uiso   1.00
O115   O     0.38340   0.39730   0.25320   0.30711  Uani   1.00
H116   H     0.43011   0.43017   0.24711   0.46100  Uiso   1.00
C117   C     0.25360   0.35430   0.19600   0.31711  Uani   1.00
H118   H     0.24058   0.30304   0.21938   0.47700  Uiso   1.00
H119   H     0.24158   0.38135   0.24527   0.47700  Uiso   1.00
H120   H     0.22340   0.34896   0.13931   0.47700  Uiso   1.00
C121   C     0.44130   0.61480   0.86930   0.20844  Uani   1.00
H122   H     0.47941   0.65600   0.82874   0.31100  Uiso   1.00
H123   H     0.43820   0.56587   0.85245   0.31100  Uiso   1.00
H124   H     0.39081   0.61053   0.86040   0.31100  Uiso   1.00
O125   O     0.54970   0.67740   0.97780   0.27456  Uani   1.00
H126   H     0.56737   0.65204   0.95158   0.41200  Uiso   1.00
N127   N     0.22020   0.59190   0.39980   0.07189  Uani   1.00
N128   N     0.19200   0.52580   0.33930   0.06722  Uani   1.00
C129   C     0.16290   0.57970   0.45580   0.08100  Uani   1.00
N130   N     0.09460   0.50740   0.43550   0.08178  Uani   1.00
C131   C     0.11840   0.47940   0.36290   0.07889  Uani   1.00
C132   C     0.06020   0.40100   0.32760   0.18600  Uani   1.00
H133   H     0.02382   0.37377   0.38097   0.22300  Uiso   1.00
C134   C     0.16790   0.63410   0.52580   0.14922  Uani   1.00
H135   H     0.22206   0.67659   0.51498   0.17900  Uiso   1.00
O136   O     0.01390   0.39730   0.24680   0.30711  Uani   1.00
H137   H     0.00005   0.43017   0.25289   0.46100  Uiso   1.00
C138   C     0.10070   0.35430   0.30400   0.31711  Uani   1.00
H139   H     0.06246   0.30304   0.28062   0.47700  Uiso   1.00
H140   H     0.13977   0.38135   0.25473   0.47700  Uiso   1.00
H141   H     0.12556   0.34896   0.36069   0.47700  Uiso   1.00
C142   C     0.17350   0.61480   0.63070   0.20844  Uani   1.00
H143   H     0.17660   0.65600   0.67126   0.31100  Uiso   1.00
H144   H     0.12767   0.56587   0.64755   0.31100  Uiso   1.00
H145   H     0.21972   0.61053   0.63960   0.31100  Uiso   1.00
O146   O     0.12770   0.67740   0.52220   0.27456  Uani   1.00
H147   H     0.08467   0.65204   0.54842   0.41200  Uiso   1.00
N148   N     0.37170   0.77980   0.39980   0.07189  Uani   1.00
N149   N     0.33380   0.80800   0.33930   0.06722  Uani   1.00
C150   C     0.41680   0.83710   0.45580   0.08100  Uani   1.00
N151   N     0.41280   0.90540   0.43550   0.08178  Uani   1.00
C152   C     0.36100   0.88160   0.36290   0.07889  Uani   1.00
C153   C     0.34080   0.93980   0.32760   0.18600  Uani   1.00
H154   H     0.34995   0.97618   0.38097   0.22300  Uiso   1.00
C155   C     0.46620   0.83210   0.52580   0.14922  Uani   1.00
H156   H     0.45453   0.77794   0.51498   0.17900  Uiso   1.00
O157   O     0.38340   0.98610   0.24680   0.30711  Uani   1.00
H158   H     0.43011   0.99995   0.25289   0.46100  Uiso   1.00
C159   C     0.25360   0.89930   0.30400   0.31711  Uani   1.00
H160   H     0.24058   0.93754   0.28062   0.47700  Uiso   1.00
H161   H     0.24158   0.86023   0.25473   0.47700  Uiso   1.00
H162   H     0.22340   0.87444   0.36069   0.47700  Uiso   1.00
C163   C     0.44130   0.82650   0.63070   0.20844  Uani   1.00
H164   H     0.47941   0.82340   0.67126   0.31100  Uiso   1.00
H165   H     0.43820   0.87233   0.64755   0.31100  Uiso   1.00
H166   H     0.39081   0.78028   0.63960   0.31100  Uiso   1.00
O167   O     0.54970   0.87230   0.52220   0.27456  Uani   1.00
H168   H     0.56737   0.91533   0.54842   0.41200  Uiso   1.00
N169   N     0.40810   0.62830   0.39980   0.07189  Uani   1.00
N170   N     0.47420   0.66620   0.33930   0.06722  Uani   1.00
C171   C     0.42030   0.58320   0.45580   0.08100  Uani   1.00
N172   N     0.49260   0.58720   0.43550   0.08178  Uani   1.00
C173   C     0.52060   0.63900   0.36290   0.07889  Uani   1.00
C174   C     0.59900   0.65920   0.32760   0.18600  Uani   1.00
H175   H     0.62623   0.65005   0.38097   0.22300  Uiso   1.00
C176   C     0.36590   0.53380   0.52580   0.14922  Uani   1.00
H177   H     0.32341   0.54547   0.51498   0.17900  Uiso   1.00
O178   O     0.60270   0.61660   0.24680   0.30711  Uani   1.00
H179   H     0.56983   0.56989   0.25289   0.46100  Uiso   1.00
C180   C     0.64570   0.74640   0.30400   0.31711  Uani   1.00
H181   H     0.69696   0.75942   0.28062   0.47700  Uiso   1.00
H182   H     0.61865   0.75842   0.25473   0.47700  Uiso   1.00
H183   H     0.65104   0.77660   0.36069   0.47700  Uiso   1.00
C184   C     0.38520   0.55870   0.63070   0.20844  Uani   1.00
H185   H     0.34400   0.52059   0.67126   0.31100  Uiso   1.00
H186   H     0.43413   0.56180   0.64755   0.31100  Uiso   1.00
H187   H     0.38947   0.60919   0.63960   0.31100  Uiso   1.00
O188   O     0.32260   0.45030   0.52220   0.27456  Uani   1.00
H189   H     0.34796   0.43263   0.54842   0.41200  Uiso   1.00
N190   N     0.77980   0.40810   0.89980   0.07189  Uani   1.00
N191   N     0.80800   0.47420   0.83930   0.06722  Uani   1.00
C192   C     0.83710   0.42030   0.95580   0.08100  Uani   1.00
N193   N     0.90540   0.49260   0.93550   0.08178  Uani   1.00
C194   C     0.88160   0.52060   0.86290   0.07889  Uani   1.00
C195   C     0.93980   0.59900   0.82760   0.18600  Uani   1.00
H196   H     0.97618   0.62623   0.88097   0.22300  Uiso   1.00
C197   C     0.83210   0.36590   0.02580   0.14922  Uani   1.00
H198   H     0.77794   0.32341   0.01498   0.17900  Uiso   1.00
O199   O     0.98610   0.60270   0.74680   0.30711  Uani   1.00
H200   H     0.99995   0.56983   0.75289   0.46100  Uiso   1.00
C201   C     0.89930   0.64570   0.80400   0.31711  Uani   1.00
H202   H     0.93754   0.69696   0.78062   0.47700  Uiso   1.00
H203   H     0.86023   0.61865   0.75473   0.47700  Uiso   1.00
H204   H     0.87444   0.65104   0.86069   0.47700  Uiso   1.00
C205   C     0.82650   0.38520   0.13070   0.20844  Uani   1.00
H206   H     0.82340   0.34400   0.17126   0.31100  Uiso   1.00
H207   H     0.87233   0.43413   0.14755   0.31100  Uiso   1.00
H208   H     0.78028   0.38947   0.13960   0.31100  Uiso   1.00
O209   O     0.87230   0.32260   0.02220   0.27456  Uani   1.00
H210   H     0.91533   0.34796   0.04842   0.41200  Uiso   1.00
N211   N     0.62830   0.22020   0.89980   0.07189  Uani   1.00
N212   N     0.66620   0.19200   0.83930   0.06722  Uani   1.00
C213   C     0.58320   0.16290   0.95580   0.08100  Uani   1.00
N214   N     0.58720   0.09460   0.93550   0.08178  Uani   1.00
C215   C     0.63900   0.11840   0.86290   0.07889  Uani   1.00
C216   C     0.65920   0.06020   0.82760   0.18600  Uani   1.00
H217   H     0.65005   0.02382   0.88097   0.22300  Uiso   1.00
C218   C     0.53380   0.16790   0.02580   0.14922  Uani   1.00
H219   H     0.54547   0.22206   0.01498   0.17900  Uiso   1.00
O220   O     0.61660   0.01390   0.74680   0.30711  Uani   1.00
H221   H     0.56989   0.00005   0.75289   0.46100  Uiso   1.00
C222   C     0.74640   0.10070   0.80400   0.31711  Uani   1.00
H223   H     0.75942   0.06246   0.78062   0.47700  Uiso   1.00
H224   H     0.75842   0.13977   0.75473   0.47700  Uiso   1.00
H225   H     0.77660   0.12556   0.86069   0.47700  Uiso   1.00
C226   C     0.55870   0.17350   0.13070   0.20844  Uani   1.00
H227   H     0.52059   0.17660   0.17126   0.31100  Uiso   1.00
H228   H     0.56180   0.12767   0.14755   0.31100  Uiso   1.00
H229   H     0.60919   0.21972   0.13960   0.31100  Uiso   1.00
O230   O     0.45030   0.12770   0.02220   0.27456  Uani   1.00
H231   H     0.43263   0.08467   0.04842   0.41200  Uiso   1.00
N232   N     0.59190   0.37170   0.89980   0.07189  Uani   1.00
N233   N     0.52580   0.33380   0.83930   0.06722  Uani   1.00
C234   C     0.57970   0.41680   0.95580   0.08100  Uani   1.00
N235   N     0.50740   0.41280   0.93550   0.08178  Uani   1.00
C236   C     0.47940   0.36100   0.86290   0.07889  Uani   1.00
C237   C     0.40100   0.34080   0.82760   0.18600  Uani   1.00
H238   H     0.37377   0.34995   0.88097   0.22300  Uiso   1.00
C239   C     0.63410   0.46620   0.02580   0.14922  Uani   1.00
H240   H     0.67659   0.45453   0.01498   0.17900  Uiso   1.00
O241   O     0.39730   0.38340   0.74680   0.30711  Uani   1.00
H242   H     0.43017   0.43011   0.75289   0.46100  Uiso   1.00
C243   C     0.35430   0.25360   0.80400   0.31711  Uani   1.00
H244   H     0.30304   0.24058   0.78062   0.47700  Uiso   1.00
H245   H     0.38135   0.24158   0.75473   0.47700  Uiso   1.00
H246   H     0.34896   0.22340   0.86069   0.47700  Uiso   1.00
C247   C     0.61480   0.44130   0.13070   0.20844  Uani   1.00
H248   H     0.65600   0.47941   0.17126   0.31100  Uiso   1.00
H249   H     0.56587   0.43820   0.14755   0.31100  Uiso   1.00
H250   H     0.61053   0.39081   0.13960   0.31100  Uiso   1.00
O251   O     0.67740   0.54970   0.02220   0.27456  Uani   1.00
H252   H     0.65204   0.56737   0.04842   0.41200  Uiso   1.00
Cu253  Cu    0.66667   0.33333   0.60127   0.06317  Uani   1.00
Cu254  Cu    0.33333   0.66667   0.10127   0.06317  Uani   1.00
Cu255  Cu    0.33333   0.66667   0.39873   0.06317  Uani   1.00
Cu256  Cu    0.66667   0.33333   0.89873   0.06317  Uani   1.00
Cu257  Cu    0.52268   0.26134   0.75000   0.06620  Uani   1.00
Cu258  Cu    0.73866   0.26134   0.75000   0.06620  Uani   1.00
Cu259  Cu    0.73866   0.47732   0.75000   0.06620  Uani   1.00
Cu260  Cu    0.47732   0.73866   0.25000   0.06620  Uani   1.00
Cu261  Cu    0.26134   0.73866   0.25000   0.06620  Uani   1.00
Cu262  Cu    0.26134   0.52268   0.25000   0.06620  Uani   1.00
Cu263  Cu    0.46153  -0.00000   0.50000   0.09906  Uani   1.00
Cu264  Cu    0.00000   0.46153   0.50000   0.09906  Uani   1.00
Cu265  Cu    0.53847   0.53847   0.50000   0.09906  Uani   1.00
Cu266  Cu    0.53847   0.00000   0.00000   0.09906  Uani   1.00
Cu267  Cu   -0.00000   0.53847   0.00000   0.09906  Uani   1.00
Cu268  Cu    0.46153   0.46153   0.00000   0.09906  Uani   1.00
loop_
_atom_site_aniso_label
_atom_site_aniso_U_11
_atom_site_aniso_U_22
_atom_site_aniso_U_33
_atom_site_aniso_U_12
_atom_site_aniso_U_13
_atom_site_aniso_U_23
N1        0.08200   0.06600   0.06100   0.03200   0.00400  -0.01600
N2        0.06900   0.06100   0.05900   0.02300  -0.00100  -0.01100
C3        0.12200   0.08200   0.06300   0.06900  -0.01900  -0.01500
N4        0.08700   0.08300   0.06400   0.03400  -0.00300  -0.01600
C5        0.08100   0.06700   0.06600   0.02000   0.00200  -0.00800
C6        0.11000   0.17500   0.22600   0.03600   0.04900   0.12100
C8        0.21600   0.18900   0.09700   0.14200   0.05800  -0.00200
O10       0.22700   0.31400   0.32000   0.09000   0.04600   0.21300
C12       0.20300   0.35000   0.41000   0.14700   0.08000   0.14000
C16       0.25000   0.30000   0.11200   0.16500   0.04400   0.01900
O20       0.31500   0.38000   0.25300   0.26700   0.03600  -0.01700
N22       0.06600   0.08400   0.06100   0.03400   0.01600   0.02000
N23       0.06100   0.08400   0.05900   0.03800   0.01100   0.01000
C24       0.08200   0.06600   0.06300   0.01300   0.01500  -0.00400
N25       0.08300   0.10200   0.06400   0.04900   0.01600   0.01300
C26       0.06700   0.10800   0.06600   0.04700   0.00800   0.01000
C27       0.17500   0.21300   0.22600   0.13900  -0.12100  -0.07200
C29       0.18900   0.12100   0.09700   0.04700   0.00200   0.06000
O31       0.31400   0.36100   0.32000   0.22400  -0.21300  -0.16700
C33       0.35000   0.25900   0.41000   0.20300  -0.14000  -0.06000
C37       0.30000   0.22000   0.11200   0.13500  -0.01900   0.02500
O41       0.38000   0.16100   0.25300   0.11300   0.01700   0.05300
N43       0.08400   0.08200   0.06100   0.05000  -0.02000  -0.00400
N44       0.08400   0.06900   0.05900   0.04600  -0.01000   0.00100
C45       0.06600   0.12200   0.06300   0.05300   0.00400   0.01900
N46       0.10200   0.08700   0.06400   0.05300  -0.01300   0.00300
C47       0.10800   0.08100   0.06600   0.06100  -0.01000  -0.00200
C48       0.21300   0.11000   0.22600   0.07400   0.07200  -0.04900
C50       0.12100   0.21600   0.09700   0.07400  -0.06000  -0.05800
O52       0.36100   0.22700   0.32000   0.13700   0.16700  -0.04600
C54       0.25900   0.20300   0.41000   0.05600   0.06000  -0.08000
C58       0.22000   0.25000   0.11200   0.08500  -0.02500  -0.04400
O62       0.16100   0.31500   0.25300   0.04800  -0.05300  -0.03600
N64       0.08200   0.06600   0.06100   0.03200  -0.00400   0.01600
N65       0.06900   0.06100   0.05900   0.02300   0.00100   0.01100
C66       0.12200   0.08200   0.06300   0.06900   0.01900   0.01500
N67       0.08700   0.08300   0.06400   0.03400   0.00300   0.01600
C68       0.08100   0.06700   0.06600   0.02000  -0.00200   0.00800
C69       0.11000   0.17500   0.22600   0.03600  -0.04900  -0.12100
C71       0.21600   0.18900   0.09700   0.14200  -0.05800   0.00200
O73       0.22700   0.31400   0.32000   0.09000  -0.04600  -0.21300
C75       0.20300   0.35000   0.41000   0.14700  -0.08000  -0.14000
C79       0.25000   0.30000   0.11200   0.16500  -0.04400  -0.01900
O83       0.31500   0.38000   0.25300   0.26700  -0.03600   0.01700
N85       0.06600   0.08400   0.06100   0.03400  -0.01600  -0.02000
N86       0.06100   0.08400   0.05900   0.03800  -0.01100  -0.01000
C87       0.08200   0.06600   0.06300   0.01300  -0.01500   0.00400
N88       0.08300   0.10200   0.06400   0.04900  -0.01600  -0.01300
C89       0.06700   0.10800   0.06600   0.04700  -0.00800  -0.01000
C90       0.17500   0.21300   0.22600   0.13900   0.12100   0.07200
C92       0.18900   0.12100   0.09700   0.04700  -0.00200  -0.06000
O94       0.31400   0.36100   0.32000   0.22400   0.21300   0.16700
C96       0.35000   0.25900   0.41000   0.20300   0.14000   0.06000
C100      0.30000   0.22000   0.11200   0.13500   0.01900  -0.02500
O104      0.38000   0.16100   0.25300   0.11300  -0.01700  -0.05300
N106      0.08400   0.08200   0.06100   0.05000   0.02000   0.00400
N107      0.08400   0.06900   0.05900   0.04600   0.01000  -0.00100
C108      0.06600   0.12200   0.06300   0.05300  -0.00400  -0.01900
N109      0.10200   0.08700   0.06400   0.05300   0.01300  -0.00300
C110      0.10800   0.08100   0.06600   0.06100   0.01000   0.00200
C111      0.21300   0.11000   0.22600   0.07400  -0.07200   0.04900
C113      0.12100   0.21600   0.09700   0.07400   0.06000   0.05800
O115      0.36100   0.22700   0.32000   0.13700  -0.16700   0.04600
C117      0.25900   0.20300   0.41000   0.05600  -0.06000   0.08000
C121      0.22000   0.25000   0.11200   0.08500   0.02500   0.04400
O125      0.16100   0.31500   0.25300   0.04800   0.05300   0.03600
N127      0.06600   0.08200   0.06100   0.03200   0.01600  -0.00400
N128      0.06100   0.06900   0.05900   0.02300   0.01100   0.00100
C129      0.08200   0.12200   0.06300   0.06900   0.01500   0.01900
N130      0.08300   0.08700   0.06400   0.03400   0.01600   0.00300
C131      0.06700   0.08100   0.06600   0.02000   0.00800  -0.00200
C132      0.17500   0.11000   0.22600   0.03600  -0.12100  -0.04900
C134      0.18900   0.21600   0.09700   0.14200   0.00200  -0.05800
O136      0.31400   0.22700   0.32000   0.09000  -0.21300  -0.04600
C138      0.35000   0.20300   0.41000   0.14700  -0.14000  -0.08000
C142      0.30000   0.25000   0.11200   0.16500  -0.01900  -0.04400
O146      0.38000   0.31500   0.25300   0.26700   0.01700  -0.03600
N148      0.08400   0.06600   0.06100   0.03400  -0.02000  -0.01600
N149      0.08400   0.06100   0.05900   0.03800  -0.01000  -0.01100
C150      0.06600   0.08200   0.06300   0.01300   0.00400  -0.01500
N151      0.10200   0.08300   0.06400   0.04900  -0.01300  -0.01600
C152      0.10800   0.06700   0.06600   0.04700  -0.01000  -0.00800
C153      0.21300   0.17500   0.22600   0.13900   0.07200   0.12100
C155      0.12100   0.18900   0.09700   0.04700  -0.06000  -0.00200
O157      0.36100   0.31400   0.32000   0.22400   0.16700   0.21300
C159      0.25900   0.35000   0.41000   0.20300   0.06000   0.14000
C163      0.22000   0.30000   0.11200   0.13500  -0.02500   0.01900
O167      0.16100   0.38000   0.25300   0.11300  -0.05300  -0.01700
N169      0.08200   0.08400   0.06100   0.05000   0.00400   0.02000
N170      0.06900   0.08400   0.05900   0.04600  -0.00100   0.01000
C171      0.12200   0.06600   0.06300   0.05300  -0.01900  -0.00400
N172      0.08700   0.10200   0.06400   0.05300  -0.00300   0.01300
C173      0.08100   0.10800   0.06600   0.06100   0.00200   0.01000
C174      0.11000   0.21300   0.22600   0.07400   0.04900  -0.07200
C176      0.21600   0.12100   0.09700   0.07400   0.05800   0.06000
O178      0.22700   0.36100   0.32000   0.13700   0.04600  -0.16700
C180      0.20300   0.25900   0.41000   0.05600   0.08000  -0.06000
C184      0.25000   0.22000   0.11200   0.08500   0.04400   0.02500
O188      0.31500   0.16100   0.25300   0.04800   0.03600   0.05300
N190      0.06600   0.08200   0.06100   0.03200  -0.01600   0.00400
N191      0.06100   0.06900   0.05900   0.02300  -0.01100  -0.00100
C192      0.08200   0.12200   0.06300   0.06900  -0.01500  -0.01900
N193      0.08300   0.08700   0.06400   0.03400  -0.01600  -0.00300
C194      0.06700   0.08100   0.06600   0.02000  -0.00800   0.00200
C195      0.17500   0.11000   0.22600   0.03600   0.12100   0.04900
C197      0.18900   0.21600   0.09700   0.14200  -0.00200   0.05800
O199      0.31400   0.22700   0.32000   0.09000   0.21300   0.04600
C201      0.35000   0.20300   0.41000   0.14700   0.14000   0.08000
C205      0.30000   0.25000   0.11200   0.16500   0.01900   0.04400
O209      0.38000   0.31500   0.25300   0.26700  -0.01700   0.03600
N211      0.08400   0.06600   0.06100   0.03400   0.02000   0.01600
N212      0.08400   0.06100   0.05900   0.03800   0.01000   0.01100
C213      0.06600   0.08200   0.06300   0.01300  -0.00400   0.01500
N214      0.10200   0.08300   0.06400   0.04900   0.01300   0.01600
C215      0.10800   0.06700   0.06600   0.04700   0.01000   0.00800
C216      0.21300   0.17500   0.22600   0.13900  -0.07200  -0.12100
C218      0.12100   0.18900   0.09700   0.04700   0.06000   0.00200
O220      0.36100   0.31400   0.32000   0.22400  -0.16700  -0.21300
C222      0.25900   0.35000   0.41000   0.20300  -0.06000  -0.14000
C226      0.22000   0.30000   0.11200   0.13500   0.02500  -0.01900
O230      0.16100   0.38000   0.25300   0.11300   0.05300   0.01700
N232      0.08200   0.08400   0.06100   0.05000  -0.00400  -0.02000
N233      0.06900   0.08400   0.05900   0.04600   0.00100  -0.01000
C234      0.12200   0.06600   0.06300   0.05300   0.01900   0.00400
N235      0.08700   0.10200   0.06400   0.05300   0.00300  -0.01300
C236      0.08100   0.10800   0.06600   0.06100  -0.00200  -0.01000
C237      0.11000   0.21300   0.22600   0.07400  -0.04900   0.07200
C239      0.21600   0.12100   0.09700   0.07400  -0.05800  -0.06000
O241      0.22700   0.36100   0.32000   0.13700  -0.04600   0.16700
C243      0.20300   0.25900   0.41000   0.05600  -0.08000   0.06000
C247      0.25000   0.22000   0.11200   0.08500  -0.04400  -0.02500
O251      0.31500   0.16100   0.25300   0.04800  -0.03600  -0.05300
Cu253     0.06760   0.06760   0.05430   0.03380   0.00000   0.00000
Cu254     0.06760   0.06760   0.05430   0.03380   0.00000   0.00000
Cu255     0.06760   0.06760   0.05430   0.03380   0.00000   0.00000
Cu256     0.06760   0.06760   0.05430   0.03380   0.00000   0.00000
Cu257     0.07210   0.06925   0.05820   0.03605   0.00000  -0.01420
Cu258     0.06925   0.06925   0.05820   0.03320   0.01420   0.01420
Cu259     0.06925   0.07210   0.05820   0.03605  -0.01420   0.00000
Cu260     0.07210   0.06925   0.05820   0.03605   0.00000   0.01420
Cu261     0.06925   0.06925   0.05820   0.03320  -0.01420  -0.01420
Cu262     0.06925   0.07210   0.05820   0.03605   0.01420  -0.00000
Cu263     0.12715   0.07130   0.08010   0.03565  -0.01545  -0.03090
Cu264     0.07130   0.12715   0.08010   0.03565   0.03090   0.01545
Cu265     0.12715   0.12715   0.08010   0.09150  -0.01545   0.01545
Cu266     0.12715   0.07130   0.08010   0.03565   0.01545   0.03090
Cu267     0.07130   0.12715   0.08010   0.03565  -0.03090  -0.01545
Cu268     0.12715   0.12715   0.08010   0.09150   0.01545  -0.01545
loop_
_geom_bond_atom_site_label_1
_geom_bond_atom_site_label_2
_geom_bond_distance
_geom_bond_site_symmetry_2
_ccdc_geom_bond_type
N1     Cu253   1.955   .     S
N1     N2      1.404   .     S
N1     C3      1.286   .     S
N2     Cu257   1.862   .     S
N2     C5      1.306   .     S
C3     N4      1.409   .     S
C3     C8      1.408   .     S
N4     Cu263   1.839   .     S
N4     C5      1.337   .     S
C5     C6      1.467   .     S
C6     H7      0.980   .     S
C6     O10     1.420   .     S
C6     C12     1.518   .     S
C8     H9      0.980   .     S
C8     C16     1.519   .     S
C8     O20     1.419   .     S
O10    H11     0.819   .     S
C12    H13     0.961   .     S
C12    H14     0.963   .     S
C12    H15     0.957   .     S
C16    H17     0.961   .     S
C16    H18     0.960   .     S
C16    H19     0.959   .     S
O20    H21     0.820   .     S
N22    Cu253   1.955   .     S
N22    N23     1.404   .     S
N22    C24     1.286   .     S
N23    Cu258   1.862   .     S
N23    C26     1.306   .     S
C24    N25     1.409   .     S
C24    C29     1.408   .     S
N25    Cu264   1.839   1_655 S
N25    C26     1.337   .     S
C26    C27     1.467   .     S
C27    H28     0.980   .     S
C27    O31     1.420   .     S
C27    C33     1.518   .     S
C29    H30     0.980   .     S
C29    C37     1.519   .     S
C29    O41     1.419   .     S
O31    H32     0.819   .     S
C33    H34     0.961   .     S
C33    H35     0.963   .     S
C33    H36     0.957   .     S
C37    H38     0.961   .     S
C37    H39     0.960   .     S
C37    H40     0.959   .     S
O41    H42     0.820   .     S
N43    Cu253   1.955   .     S
N43    N44     1.404   .     S
N43    C45     1.286   .     S
N44    Cu259   1.862   .     S
N44    C47     1.306   .     S
C45    N46     1.409   .     S
C45    C50     1.408   .     S
N46    Cu265   1.839   .     S
N46    C47     1.337   .     S
C47    C48     1.467   .     S
C48    H49     0.980   .     S
C48    O52     1.420   .     S
C48    C54     1.518   .     S
C50    H51     0.980   .     S
C50    C58     1.519   .     S
C50    O62     1.419   .     S
O52    H53     0.819   .     S
C54    H55     0.961   .     S
C54    H56     0.963   .     S
C54    H57     0.957   .     S
C58    H59     0.961   .     S
C58    H60     0.960   .     S
C58    H61     0.959   .     S
O62    H63     0.820   .     S
N64    Cu254   1.955   .     S
N64    N65     1.404   .     S
N64    C66     1.286   .     S
N65    Cu260   1.862   .     S
N65    C68     1.306   .     S
C66    N67     1.409   .     S
C66    C71     1.408   1_554 S
N67    Cu266   1.839   1_565 S
N67    C68     1.337   .     S
C68    C69     1.467   .     S
C69    H70     0.980   .     S
C69    O73     1.420   .     S
C69    C75     1.518   .     S
C71    C66     1.408   1_556 S
C71    H72     0.980   .     S
C71    C79     1.519   .     S
C71    O83     1.419   .     S
O73    H74     0.819   .     S
C75    H76     0.961   .     S
C75    H77     0.963   .     S
C75    H78     0.957   .     S
C79    H80     0.961   .     S
C79    H81     0.960   .     S
C79    H82     0.959   .     S
O83    H84     0.820   .     S
N85    Cu254   1.955   .     S
N85    N86     1.404   .     S
N85    C87     1.286   .     S
N86    Cu261   1.862   .     S
N86    C89     1.306   .     S
C87    N88     1.409   .     S
C87    C92     1.408   1_554 S
N88    Cu267   1.839   .     S
N88    C89     1.337   .     S
C89    C90     1.467   .     S
C90    H91     0.980   .     S
C90    O94     1.420   .     S
C90    C96     1.518   .     S
C92    C87     1.408   1_556 S
C92    H93     0.980   .     S
C92    C100    1.519   .     S
C92    O104    1.419   .     S
O94    H95     0.819   .     S
C96    H97     0.961   .     S
C96    H98     0.963   .     S
C96    H99     0.957   .     S
C100   H101    0.961   .     S
C100   H102    0.960   .     S
C100   H103    0.959   .     S
O104   H105    0.820   .     S
N106   Cu254   1.955   .     S
N106   N107    1.404   .     S
N106   C108    1.286   .     S
N107   Cu262   1.862   .     S
N107   C110    1.306   .     S
C108   N109    1.409   .     S
C108   C113    1.408   1_554 S
N109   Cu268   1.839   .     S
N109   C110    1.337   .     S
C110   C111    1.467   .     S
C111   H112    0.980   .     S
C111   O115    1.420   .     S
C111   C117    1.518   .     S
C113   C108    1.408   1_556 S
C113   H114    0.980   .     S
C113   C121    1.519   .     S
C113   O125    1.419   .     S
O115   H116    0.819   .     S
C117   H118    0.961   .     S
C117   H119    0.963   .     S
C117   H120    0.957   .     S
C121   H122    0.961   .     S
C121   H123    0.960   .     S
C121   H124    0.959   .     S
O125   H126    0.820   .     S
N127   Cu255   1.955   .     S
N127   N128    1.404   .     S
N127   C129    1.286   .     S
N128   Cu262   1.862   .     S
N128   C131    1.306   .     S
C129   N130    1.409   .     S
C129   C134    1.408   .     S
N130   Cu264   1.839   .     S
N130   C131    1.337   .     S
C131   C132    1.467   .     S
C132   H133    0.980   .     S
C132   O136    1.420   .     S
C132   C138    1.518   .     S
C134   H135    0.980   .     S
C134   C142    1.519   .     S
C134   O146    1.419   .     S
O136   H137    0.819   .     S
C138   H139    0.961   .     S
C138   H140    0.963   .     S
C138   H141    0.957   .     S
C142   H143    0.961   .     S
C142   H144    0.960   .     S
C142   H145    0.959   .     S
O146   H147    0.820   .     S
N148   Cu255   1.955   .     S
N148   N149    1.404   .     S
N148   C150    1.286   .     S
N149   Cu261   1.862   .     S
N149   C152    1.306   .     S
C150   N151    1.409   .     S
C150   C155    1.408   .     S
N151   Cu263   1.839   1_565 S
N151   C152    1.337   .     S
C152   C153    1.467   .     S
C153   H154    0.980   .     S
C153   O157    1.420   .     S
C153   C159    1.518   .     S
C155   H156    0.980   .     S
C155   C163    1.519   .     S
C155   O167    1.419   .     S
O157   H158    0.819   .     S
C159   H160    0.961   .     S
C159   H161    0.963   .     S
C159   H162    0.957   .     S
C163   H164    0.961   .     S
C163   H165    0.960   .     S
C163   H166    0.959   .     S
O167   H168    0.820   .     S
N169   Cu255   1.955   .     S
N169   N170    1.404   .     S
N169   C171    1.286   .     S
N170   Cu260   1.862   .     S
N170   C173    1.306   .     S
C171   N172    1.409   .     S
C171   C176    1.408   .     S
N172   Cu265   1.839   .     S
N172   C173    1.337   .     S
C173   C174    1.467   .     S
C174   H175    0.980   .     S
C174   O178    1.420   .     S
C174   C180    1.518   .     S
C176   H177    0.980   .     S
C176   C184    1.519   .     S
C176   O188    1.419   .     S
O178   H179    0.819   .     S
C180   H181    0.961   .     S
C180   H182    0.963   .     S
C180   H183    0.957   .     S
C184   H185    0.961   .     S
C184   H186    0.960   .     S
C184   H187    0.959   .     S
O188   H189    0.820   .     S
N190   Cu256   1.955   .     S
N190   N191    1.404   .     S
N190   C192    1.286   .     S
N191   Cu259   1.862   .     S
N191   C194    1.306   .     S
C192   N193    1.409   .     S
C192   C197    1.408   1_556 S
N193   Cu267   1.839   1_656 S
N193   C194    1.337   .     S
C194   C195    1.467   .     S
C195   H196    0.980   .     S
C195   O199    1.420   .     S
C195   C201    1.518   .     S
C197   C192    1.408   1_554 S
C197   H198    0.980   .     S
C197   C205    1.519   .     S
C197   O209    1.419   .     S
O199   H200    0.819   .     S
C201   H202    0.961   .     S
C201   H203    0.963   .     S
C201   H204    0.957   .     S
C205   H206    0.961   .     S
C205   H207    0.960   .     S
C205   H208    0.959   .     S
O209   H210    0.820   .     S
N211   Cu256   1.955   .     S
N211   N212    1.404   .     S
N211   C213    1.286   .     S
N212   Cu258   1.862   .     S
N212   C215    1.306   .     S
C213   N214    1.409   .     S
C213   C218    1.408   1_556 S
N214   Cu266   1.839   1_556 S
N214   C215    1.337   .     S
C215   C216    1.467   .     S
C216   H217    0.980   .     S
C216   O220    1.420   .     S
C216   C222    1.518   .     S
C218   C213    1.408   1_554 S
C218   H219    0.980   .     S
C218   C226    1.519   .     S
C218   O230    1.419   .     S
O220   H221    0.819   .     S
C222   H223    0.961   .     S
C222   H224    0.963   .     S
C222   H225    0.957   .     S
C226   H227    0.961   .     S
C226   H228    0.960   .     S
C226   H229    0.959   .     S
O230   H231    0.820   .     S
N232   Cu256   1.955   .     S
N232   N233    1.404   .     S
N232   C234    1.286   .     S
N233   Cu257   1.862   .     S
N233   C236    1.306   .     S
C234   N235    1.409   .     S
C234   C239    1.408   1_556 S
N235   Cu268   1.839   1_556 S
N235   C236    1.337   .     S
C236   C237    1.467   .     S
C237   H238    0.980   .     S
C237   O241    1.420   .     S
C237   C243    1.518   .     S
C239   C234    1.408   1_554 S
C239   H240    0.980   .     S
C239   C247    1.519   .     S
C239   O251    1.419   .     S
O241   H242    0.819   .     S
C243   H244    0.961   .     S
C243   H245    0.963   .     S
C243   H246    0.957   .     S
C247   H248    0.961   .     S
C247   H249    0.960   .     S
C247   H250    0.959   .     S
O251   H252    0.820   .     S
Cu263  N151    1.839   1_545 S
Cu264  N25     1.839   1_455 S
Cu266  N67     1.839   1_545 S
Cu266  N214    1.839   1_554 S
Cu267  N193    1.839   1_454 S
Cu268  N235    1.839   1_554 S
