data_BAXRUQ_direct
_audit_creation_date              2024-06-11
_audit_creation_method            'Materials Studio'
_symmetry_space_group_name_H-M    'P1'
_symmetry_Int_Tables_number       1
_symmetry_cell_setting            triclinic
loop_
_symmetry_equiv_pos_as_xyz
  x,y,z
_cell_length_a                    11.9620
_cell_length_b                    14.8970
_cell_length_c                    22.5400
_cell_angle_alpha                 104.1200
_cell_angle_beta                  91.1100
_cell_angle_gamma                 106.0900
loop_
_atom_site_label
_atom_site_type_symbol
_atom_site_fract_x
_atom_site_fract_y
_atom_site_fract_z
_atom_site_U_iso_or_equiv
_atom_site_adp_type
_atom_site_occupancy
Zn1    Zn    0.32942   0.35240   0.24178   0.00000  Uiso   1.00
Zn2    Zn    0.65053   0.63026   0.25675   0.00000  Uiso   1.00
Zn3    Zn    0.95894   0.39660   0.40387   0.00000  Uiso   1.00
Zn4    Zn    0.40971   0.98792   0.59482   0.00000  Uiso   1.00
Zn5    Zn    0.41026   0.99668   0.08628   0.00000  Uiso   1.00
Zn6    Zn    0.04411   0.63085   0.08810   0.00000  Uiso   1.00
Zn7    Zn    0.72856   0.80464   0.10241   0.00000  Uiso   1.00
Zn8    Zn    0.33013   0.78372   0.23772   0.00000  Uiso   1.00
Zn9    Zn    0.33866   0.82338   0.75123   0.00000  Uiso   1.00
Zn10   Zn    0.73540   0.85480   0.60001   0.00000  Uiso   1.00
P1     P     0.53127   0.49668   0.34414   0.00000  Uiso   1.00
P2     P     0.14576   0.41881   0.31392   0.00000  Uiso   1.00
P3     P     0.14321   0.46737   0.51070   0.00000  Uiso   1.00
P4     P     0.29757   0.76781   0.61016   0.00000  Uiso   1.00
P5     P     0.59214   0.92589   0.51773   0.00000  Uiso   1.00
P6     P     0.56016   0.79416   0.31842   0.00000  Uiso   1.00
P7     P     0.43830   0.49187   0.15806   0.00000  Uiso   1.00
P8     P     0.45125   0.20021   0.17600   0.00000  Uiso   1.00
P9     P     0.42308   0.09966   0.97706   0.00000  Uiso   1.00
P10    P     0.71572   0.20970   0.89556   0.00000  Uiso   1.00
P11    P     0.87272   0.53652   0.97826   0.00000  Uiso   1.00
P12    P     0.80786   0.64340   0.15534   0.00000  Uiso   1.00
O1     O     0.47080   0.56790   0.38988   0.00000  Uiso   1.00
O2     O     0.23870   0.46499   0.38201   0.00000  Uiso   1.00
O3     O     0.19151   0.57027   0.49475   0.00000  Uiso   1.00
O4     O     0.37432   0.73015   0.55677   0.00000  Uiso   1.00
O5     O     0.47217   0.85137   0.47985   0.00000  Uiso   1.00
O6     O     0.53734   0.75118   0.37690   0.00000  Uiso   1.00
O7     O     0.49861   0.42241   0.11069   0.00000  Uiso   1.00
O8     O     0.47583   0.23652   0.11396   0.00000  Uiso   1.00
O9     O     0.55064   0.16909   0.00783   0.00000  Uiso   1.00
O10    O     0.67496   0.29446   0.94290   0.00000  Uiso   1.00
O11    O     0.83184   0.46881   0.02459   0.00000  Uiso   1.00
O12    O     0.70518   0.55580   0.11204   0.00000  Uiso   1.00
O13    O     0.44227   0.39671   0.30304   0.00000  Uiso   1.00
O14    O     0.63580   0.55209   0.30907   0.00000  Uiso   1.00
O15    O     0.59716   0.45548   0.38954   0.00000  Uiso   1.00
H1     H     0.55291   0.41895   0.41569   0.00000  Uiso   1.00
O16    O     0.18176   0.32030   0.26887   0.00000  Uiso   1.00
O17    O    -0.00367   0.38497   0.32379   0.00000  Uiso   1.00
O18    O     0.16522   0.49460   0.27577   0.00000  Uiso   1.00
O19    O     0.07340   0.38701   0.45021   0.00000  Uiso   1.00
O20    O     0.06255   0.48410   0.56645   0.00000  Uiso   1.00
O21    O     0.24835   0.43081   0.53199   0.00000  Uiso   1.00
H2     H     0.23129   0.37148   0.54487   0.00000  Uiso   1.00
O22    O     0.31427   0.88288   0.61820   0.00000  Uiso   1.00
O23    O     0.33988   0.74925   0.67411   0.00000  Uiso   1.00
O24    O     0.15950   0.71050   0.59029   0.00000  Uiso   1.00
O25    O     0.55834   0.97944   0.58400   0.00000  Uiso   1.00
O26    O     0.68548   0.86834   0.52729   0.00000  Uiso   1.00
O27    O     0.65080   1.00372   0.47885   0.00000  Uiso   1.00
O28    O     0.66886   0.75771   0.29192   0.00000  Uiso   1.00
O29    O     0.44930   0.74438   0.26621   0.00000  Uiso   1.00
O30    O     0.59877   0.91218   0.33851   0.00000  Uiso   1.00
O31    O     0.33656   0.43525   0.19389   0.00000  Uiso   1.00
O32    O     0.52719   0.59107   0.20040   0.00000  Uiso   1.00
O33    O     0.36825   0.53190   0.11408   0.00000  Uiso   1.00
H3     H     0.40912   0.56974   0.08797   0.00000  Uiso   1.00
O34    O     0.34025   0.23474   0.20169   0.00000  Uiso   1.00
O35    O     0.40792   0.08215   0.15935   0.00000  Uiso   1.00
O36    O     0.56351   0.24378   0.22782   0.00000  Uiso   1.00
O37    O     0.36235   0.03983   0.02471   0.00000  Uiso   1.00
O38    O     0.44599   0.02422   0.91756   0.00000  Uiso   1.00
O39    O     0.33507   0.16077   0.96234   0.00000  Uiso   1.00
O40    O     0.70593   0.11718   0.92315   0.00000  Uiso   1.00
O41    O     0.85027   0.25108   0.88185   0.00000  Uiso   1.00
O42    O     0.63561   0.17239   0.83041   0.00000  Uiso   1.00
O43    O     0.99064   0.61974   0.01042   0.00000  Uiso   1.00
O44    O     0.89493   0.46950   0.91366   0.00000  Uiso   1.00
O45    O     0.77681   0.59062   0.96853   0.00000  Uiso   1.00
H4     H     0.79045   0.63442   0.94231   0.00000  Uiso   1.00
O46    O     0.78512   0.62994   0.22337   0.00000  Uiso   1.00
O47    O     0.93418   0.62395   0.14340   0.00000  Uiso   1.00
O48    O     0.80299   0.75225   0.15433   0.00000  Uiso   1.00
O49    O     0.60824   0.69487   0.07158   0.00000  Uiso   1.00
H5     H     0.63835   0.64934   0.04122   0.00000  Uiso   1.00
H6     H     0.58814   0.66355   0.10521   0.00000  Uiso   1.00
O50    O     0.64373   0.84337   0.16612   0.00000  Uiso   1.00
H7     H     0.57269   0.84911   0.14621   0.00000  Uiso   1.00
H8     H     0.61444   0.79024   0.18604   0.00000  Uiso   1.00
O51    O     0.82037   0.93155   0.12658   0.00000  Uiso   1.00
H9     H     0.77007   0.97503   0.13223   0.00000  Uiso   1.00
H10    H     0.85861   0.94217   0.16811   0.00000  Uiso   1.00
O52    O     0.84306   0.77168   0.05503   0.00000  Uiso   1.00
H11    H     0.84238   0.79515   0.01758   0.00000  Uiso   1.00
H12    H     0.92110   0.80888   1.07685   0.00000  Uiso   1.00
O53    O     0.18504   0.78678   0.26494   0.00000  Uiso   1.00
H13    H     0.16425   0.74286   0.29232   0.00000  Uiso   1.00
H14    H     0.12331   0.76037   0.23021   0.00000  Uiso   1.00
O54    O     0.37925   0.89504   0.29850   0.00000  Uiso   1.00
H15    H     0.33850   0.94001   0.28903   0.00000  Uiso   1.00
H16    H     0.34819   0.87915   0.33622   0.00000  Uiso   1.00
O55    O     0.25027   0.65528   0.20673   0.00000  Uiso   1.00
H17    H     0.28464   0.61410   0.22513   0.00000  Uiso   1.00
H18    H     0.26720   0.64078   0.16352   0.00000  Uiso   1.00
O56    O     0.41814   0.94676   0.75078   0.00000  Uiso   1.00
H19    H     0.49908  -0.05447   0.74390   0.00000  Uiso   1.00
H20    H     0.42331  -0.01407   0.79357   0.00000  Uiso   1.00
O57    O     0.18245   0.79691   0.72583   0.00000  Uiso   1.00
H21    H     0.13251   0.75709   0.75000   0.00000  Uiso   1.00
H22    H     0.16388   0.85944   0.73598   0.00000  Uiso   1.00
O58    O     0.28801   0.82878   0.82834   0.00000  Uiso   1.00
H23    H     0.23628   0.87104   0.83598   0.00000  Uiso   1.00
H24    H     0.35663   0.86584   0.85776   0.00000  Uiso   1.00
O59    O     0.83244   0.97938   0.61962   0.00000  Uiso   1.00
H25    H     0.86772   0.99264   0.66214   0.00000  Uiso   1.00
O60    O     0.86632   0.81451   0.60456   0.00000  Uiso   1.00
H27    H     0.87076   0.77526   0.56285   0.00000  Uiso   1.00
H28    H     0.85343   0.76925   0.63112   0.00000  Uiso   1.00
O61    O     0.63948   0.72915   0.58096   0.00000  Uiso   1.00
H29    H     0.66546   0.69286   0.54366   0.00000  Uiso   1.00
H30    H     0.65491   0.69903   0.61364   0.00000  Uiso   1.00
O62    O     0.65930   0.88409   0.66851   0.00000  Uiso   1.00
H31    H     0.67823   0.84713   0.69634   0.00000  Uiso   1.00
H32    H     0.57466   0.85488   0.65583   0.00000  Uiso   1.00
C1     C     0.38731   0.60620   0.37177   0.00000  Uiso   1.00
H33    H     0.37228   0.58676   0.32083   0.00000  Uiso   1.00
C2     C     0.27298   0.56702   0.39937   0.00000  Uiso   1.00
H34    H     0.20391   0.59726   0.38562   0.00000  Uiso   1.00
C3     C     0.29425   0.59937   0.46991   0.00000  Uiso   1.00
H35    H     0.35968   0.56710   0.48519   0.00000  Uiso   1.00
C4     C     0.34033   0.70964   0.49497   0.00000  Uiso   1.00
H36    H     0.27095   0.74332   0.48659   0.00000  Uiso   1.00
C5     C     0.44715   0.75192   0.46470   0.00000  Uiso   1.00
H37    H     0.52054   0.72865   0.48072   0.00000  Uiso   1.00
C6     C     0.42955   0.71721   0.39525   0.00000  Uiso   1.00
H38    H     0.36498   0.74855   0.37792   0.00000  Uiso   1.00
C7     C     0.59761   0.40028   0.12622   0.00000  Uiso   1.00
H39    H     0.61329   0.41665   0.17717   0.00000  Uiso   1.00
C8     C     0.58048   0.29151   0.09991   0.00000  Uiso   1.00
H40    H     0.65550   0.27292   0.11751   0.00000  Uiso   1.00
C9     C     0.57539   0.26712   0.02996   0.00000  Uiso   1.00
H41    H     0.50627   0.29352   0.01310   0.00000  Uiso   1.00
C10    C     0.68960   0.31602   0.00680   0.00000  Uiso   1.00
H42    H     0.76215   0.29114   0.02230   0.00000  Uiso   1.00
C11    C     0.71760   0.42600   0.03265   0.00000  Uiso   1.00
H43    H     0.65597   0.45148   0.00818   0.00000  Uiso   1.00
C12    C     0.70566   0.46041   0.10168   0.00000  Uiso   1.00
H44    H     0.78318   0.45434   0.12707   0.00000  Uiso   1.00
H45    H     0.78317   1.02346   0.62261   0.00000  Uiso   1.00
Zn11   Zn    0.67058   0.64760   0.75822   0.00000  Uiso   1.00
Zn12   Zn    0.34947   0.36974   0.74325   0.00000  Uiso   1.00
Zn13   Zn    0.04106   0.60340   0.59613   0.00000  Uiso   1.00
Zn14   Zn    0.59029   0.01208   0.40518   0.00000  Uiso   1.00
Zn15   Zn    0.58974   0.00332   0.91372   0.00000  Uiso   1.00
Zn16   Zn    0.95589   0.36915   0.91190   0.00000  Uiso   1.00
Zn17   Zn    0.27144   0.19536   0.89759   0.00000  Uiso   1.00
Zn18   Zn    0.66987   0.21628   0.76228   0.00000  Uiso   1.00
Zn19   Zn    0.66134   0.17662   0.24877   0.00000  Uiso   1.00
Zn20   Zn    0.26460   0.14520   0.39999   0.00000  Uiso   1.00
P13    P     0.46873   0.50332   0.65586   0.00000  Uiso   1.00
P14    P     0.85424   0.58119   0.68608   0.00000  Uiso   1.00
P15    P     0.85679   0.53263   0.48930   0.00000  Uiso   1.00
P16    P     0.70243   0.23219   0.38984   0.00000  Uiso   1.00
P17    P     0.40786   0.07411   0.48227   0.00000  Uiso   1.00
P18    P     0.43984   0.20584   0.68158   0.00000  Uiso   1.00
P19    P     0.56170   0.50813   0.84194   0.00000  Uiso   1.00
P20    P     0.54875   0.79979   0.82400   0.00000  Uiso   1.00
P21    P     0.57692   0.90034   0.02294   0.00000  Uiso   1.00
P22    P     0.28428   0.79030   0.10444   0.00000  Uiso   1.00
P23    P     0.12728   0.46348   0.02174   0.00000  Uiso   1.00
P24    P     0.19214   0.35660   0.84466   0.00000  Uiso   1.00
O64    O     0.52920   0.43210   0.61012   0.00000  Uiso   1.00
O65    O     0.76130   0.53501   0.61799   0.00000  Uiso   1.00
O66    O     0.80849   0.42973   0.50525   0.00000  Uiso   1.00
O67    O     0.62568   0.26985   0.44323   0.00000  Uiso   1.00
O68    O     0.52783   0.14863   0.52015   0.00000  Uiso   1.00
O69    O     0.46266   0.24882   0.62310   0.00000  Uiso   1.00
O70    O     0.50139   0.57759   0.88931   0.00000  Uiso   1.00
O71    O     0.52417   0.76348   0.88604   0.00000  Uiso   1.00
O72    O     0.44936   0.83091   0.99217   0.00000  Uiso   1.00
O73    O     0.32504   0.70554   0.05710   0.00000  Uiso   1.00
O74    O     0.16816   0.53119   0.97541   0.00000  Uiso   1.00
O75    O     0.29482   0.44420   0.88796   0.00000  Uiso   1.00
O76    O     0.55773   0.60329   0.69696   0.00000  Uiso   1.00
O77    O     0.36420   0.44791   0.69093   0.00000  Uiso   1.00
O78    O     0.40284   0.54452   0.61046   0.00000  Uiso   1.00
H47    H     0.44709   0.58105   0.58431   0.00000  Uiso   1.00
O79    O     0.81824   0.67970   0.73113   0.00000  Uiso   1.00
O80    O     1.00367   0.61503   0.67621   0.00000  Uiso   1.00
O81    O     0.83478   0.50540   0.72423   0.00000  Uiso   1.00
O82    O     0.92660   0.61299   0.54979   0.00000  Uiso   1.00
O83    O     0.93745   0.51590   0.43355   0.00000  Uiso   1.00
O84    O     0.75165   0.56919   0.46801   0.00000  Uiso   1.00
H48    H     0.76871   0.62852   0.45513   0.00000  Uiso   1.00
O85    O     0.68573   0.11712   0.38180   0.00000  Uiso   1.00
O86    O     0.66012   0.25075   0.32589   0.00000  Uiso   1.00
O87    O     0.84050   0.28950   0.40971   0.00000  Uiso   1.00
O88    O     0.44166   0.02056   0.41600   0.00000  Uiso   1.00
O89    O     0.31452   0.13166   0.47271   0.00000  Uiso   1.00
O90    O     0.34920  -0.00372   0.52115   0.00000  Uiso   1.00
O91    O     0.33114   0.24229   0.70808   0.00000  Uiso   1.00
O92    O     0.55070   0.25562   0.73379   0.00000  Uiso   1.00
O93    O     0.40123   0.08782   0.66149   0.00000  Uiso   1.00
O94    O     0.66344   0.56475   0.80611   0.00000  Uiso   1.00
O95    O     0.47281   0.40893   0.79960   0.00000  Uiso   1.00
O96    O     0.63175   0.46810   0.88592   0.00000  Uiso   1.00
H49    H     0.59088   0.43026   0.91203   0.00000  Uiso   1.00
O97    O     0.65975   0.76526   0.79831   0.00000  Uiso   1.00
O98    O     0.59208   0.91785   0.84065   0.00000  Uiso   1.00
O99    O     0.43649   0.75622   0.77218   0.00000  Uiso   1.00
O100   O     0.63765   0.96017   0.97529   0.00000  Uiso   1.00
O101   O     0.55401   0.97578   0.08244   0.00000  Uiso   1.00
O102   O     0.66493   0.83923   0.03766   0.00000  Uiso   1.00
O103   O     0.29407   0.88282   0.07685   0.00000  Uiso   1.00
O104   O     0.14973   0.74892   0.11815   0.00000  Uiso   1.00
O105   O     0.36439   0.82761   0.16959   0.00000  Uiso   1.00
O106   O     0.00936   0.38026   0.98958   0.00000  Uiso   1.00
O107   O     0.10507   0.53050   0.08634   0.00000  Uiso   1.00
O108   O     0.22319   0.40938   0.03147   0.00000  Uiso   1.00
H50    H     0.20955   0.36558   0.05769   0.00000  Uiso   1.00
O109   O     0.21488   0.37006   0.77663   0.00000  Uiso   1.00
O110   O     0.06582   0.37605   0.85660   0.00000  Uiso   1.00
O111   O     0.19701   0.24775   0.84567   0.00000  Uiso   1.00
O112   O     0.39176   0.30513   0.92842   0.00000  Uiso   1.00
H51    H     0.36165   0.35066   0.95878   0.00000  Uiso   1.00
H52    H     0.41186   0.33645   0.89479   0.00000  Uiso   1.00
O113   O     0.35627   0.15663   0.83388   0.00000  Uiso   1.00
H53    H     0.42731   0.15089   0.85379   0.00000  Uiso   1.00
H54    H     0.38556   0.20976   0.81396   0.00000  Uiso   1.00
O114   O     0.17963   0.06845   0.87342   0.00000  Uiso   1.00
H55    H     0.22993   0.02497   0.86777   0.00000  Uiso   1.00
H56    H     0.14139   0.05783   0.83189   0.00000  Uiso   1.00
O115   O     0.15694   0.22832   0.94497   0.00000  Uiso   1.00
H57    H     0.15762   0.20485   0.98242   0.00000  Uiso   1.00
H58    H     0.07890   0.19112  -0.07685   0.00000  Uiso   1.00
O116   O     0.81496   0.21322   0.73506   0.00000  Uiso   1.00
H59    H     0.83575   0.25714   0.70768   0.00000  Uiso   1.00
H60    H     0.87669   0.23963   0.76979   0.00000  Uiso   1.00
O117   O     0.62075   0.10496   0.70150   0.00000  Uiso   1.00
H61    H     0.66150   0.05999   0.71097   0.00000  Uiso   1.00
H62    H     0.65181   0.12085   0.66378   0.00000  Uiso   1.00
O118   O     0.74973   0.34472   0.79327   0.00000  Uiso   1.00
H63    H     0.71536   0.38590   0.77487   0.00000  Uiso   1.00
H64    H     0.73280   0.35922   0.83648   0.00000  Uiso   1.00
O119   O     0.58186   0.05324   0.24922   0.00000  Uiso   1.00
H65    H     0.50092   1.05447   0.25610   0.00000  Uiso   1.00
H66    H     0.57669   1.01407   0.20643   0.00000  Uiso   1.00
O120   O     0.81755   0.20309   0.27417   0.00000  Uiso   1.00
H67    H     0.86749   0.24291   0.25000   0.00000  Uiso   1.00
H68    H     0.83612   0.14056   0.26402   0.00000  Uiso   1.00
O121   O     0.71199   0.17122   0.17166   0.00000  Uiso   1.00
H69    H     0.76372   0.12896   0.16402   0.00000  Uiso   1.00
H70    H     0.64337   0.13416   0.14224   0.00000  Uiso   1.00
O122   O     0.16756   0.02062   0.38038   0.00000  Uiso   1.00
H71    H     0.13228   0.00736   0.33786   0.00000  Uiso   1.00
O123   O     0.13368   0.18549   0.39544   0.00000  Uiso   1.00
H73    H     0.12924   0.22474   0.43715   0.00000  Uiso   1.00
H74    H     0.14657   0.23075   0.36888   0.00000  Uiso   1.00
O124   O     0.36052   0.27085   0.41904   0.00000  Uiso   1.00
H75    H     0.33454   0.30714   0.45634   0.00000  Uiso   1.00
H76    H     0.34509   0.30097   0.38636   0.00000  Uiso   1.00
O125   O     0.34070   0.11591   0.33149   0.00000  Uiso   1.00
H77    H     0.32177   0.15287   0.30366   0.00000  Uiso   1.00
H78    H     0.42534   0.14512   0.34417   0.00000  Uiso   1.00
C13    C     0.61269   0.39380   0.62823   0.00000  Uiso   1.00
H79    H     0.62772   0.41324   0.67917   0.00000  Uiso   1.00
C14    C     0.72702   0.43298   0.60063   0.00000  Uiso   1.00
H80    H     0.79609   0.40274   0.61438   0.00000  Uiso   1.00
C15    C     0.70575   0.40063   0.53009   0.00000  Uiso   1.00
H81    H     0.64032   0.43290   0.51481   0.00000  Uiso   1.00
C16    C     0.65967   0.29036   0.50503   0.00000  Uiso   1.00
H82    H     0.72905   0.25668   0.51341   0.00000  Uiso   1.00
C17    C     0.55285   0.24808   0.53530   0.00000  Uiso   1.00
H83    H     0.47946   0.27135   0.51928   0.00000  Uiso   1.00
C18    C     0.57045   0.28279   0.60475   0.00000  Uiso   1.00
H84    H     0.63502   0.25145   0.62208   0.00000  Uiso   1.00
C19    C     0.40239   0.59972   0.87378   0.00000  Uiso   1.00
H85    H     0.38671   0.58335   0.82283   0.00000  Uiso   1.00
C20    C     0.41952   0.70849   0.90009   0.00000  Uiso   1.00
H86    H     0.34450   0.72708   0.88249   0.00000  Uiso   1.00
C21    C     0.42461   0.73288   0.97004   0.00000  Uiso   1.00
H87    H     0.49373   0.70648   0.98690   0.00000  Uiso   1.00
C22    C     0.31040   0.68398   0.99320   0.00000  Uiso   1.00
H88    H     0.23785   0.70886   0.97770   0.00000  Uiso   1.00
C23    C     0.28240   0.57400   0.96735   0.00000  Uiso   1.00
H89    H     0.34403   0.54852   0.99182   0.00000  Uiso   1.00
C24    C     0.29434   0.53959   0.89832   0.00000  Uiso   1.00
H90    H     0.21682   0.54566   0.87293   0.00000  Uiso   1.00
H91    H     0.21683  -0.02346   0.37739   0.00000  Uiso   1.00
loop_
_geom_bond_atom_site_label_1
_geom_bond_atom_site_label_2
_geom_bond_distance
_geom_bond_site_symmetry_2
_ccdc_geom_bond_type
Zn1    O13     1.776   .     S
Zn1    O16     1.854   .     S
Zn1    O31     1.814   .     S
Zn1    O34     1.806   .     S
Zn2    O14     1.828   .     S
Zn2    O28     1.819   .     S
Zn2    O32     1.794   .     S
Zn2    O46     1.791   .     S
Zn3    O83     1.831   .     S
Zn3    O87     1.851   .     S
Zn3    O17     1.846   1_655 S
Zn3    O19     1.764   1_655 S
Zn4    O22     1.861   .     S
Zn4    O25     1.834   .     S
Zn4    O90     1.844   1_565 S
Zn4    O93     1.866   1_565 S
Zn5    O101    1.831   .     S
Zn5    O103    1.833   .     S
Zn5    O35     1.826   1_565 S
Zn5    O37     1.810   1_565 S
Zn6    O104    1.817   .     S
Zn6    O107    1.829   .     S
Zn6    O43     1.805   1_455 S
Zn6    O47     1.829   1_455 S
Zn7    O48     1.887   .     S
Zn7    O49     1.825   .     S
Zn7    O50     1.844   .     S
Zn7    O51     1.844   .     S
Zn7    O52     1.852   .     S
Zn7    O102    1.875   .     S
Zn8    O29     1.844   .     S
Zn8    O53     1.861   .     S
Zn8    O54     1.815   .     S
Zn8    O55     1.836   .     S
Zn8    O105    1.822   .     S
Zn9    O23     1.821   .     S
Zn9    O56     1.823   .     S
Zn9    O57     1.848   .     S
Zn9    O58     1.842   .     S
Zn9    O99     1.858   .     S
Zn10   O26     1.809   .     S
Zn10   O59     1.837   .     S
Zn10   O60     1.835   .     S
Zn10   O61     1.845   .     S
Zn10   O62     1.830   .     S
P1     O1      1.622   .     A
P1     O13     1.618   .     A
P1     O14     1.629   .     A
P1     O15     1.609   .     A
P2     O2      1.749   .     S
P2     O16     1.735   .     S
P2     O17     1.752   .     S
P2     O18     1.550   .     D
P3     O3      1.612   .     A
P3     O19     1.611   .     A
P3     O20     1.612   .     A
P3     O21     1.610   .     A
P4     O4      1.614   .     A
P4     O22     1.634   .     A
P4     O23     1.629   .     A
P4     O24     1.631   .     A
P5     O5      1.621   .     A
P5     O25     1.628   .     A
P5     O26     1.625   .     A
P5     O27     1.635   .     A
P6     O6      1.597   .     A
P6     O28     1.614   .     A
P6     O29     1.632   .     A
P6     O30     1.632   .     A
P7     O7      1.623   .     A
P7     O31     1.627   .     A
P7     O32     1.621   .     A
P7     O33     1.604   .     A
P8     O8      1.622   .     A
P8     O34     1.620   .     A
P8     O35     1.633   .     A
P8     O36     1.636   .     A
P9     O38     1.608   .     A
P9     O39     1.647   .     A
P9     O9      1.617   1_556 A
P9     O37     1.617   1_556 A
P10    O10     1.635   .     A
P10    O40     1.622   .     A
P10    O41     1.621   .     A
P10    O42     1.624   .     A
P11    O44     1.625   .     A
P11    O45     1.613   .     A
P11    O11     1.615   1_556 A
P11    O43     1.614   1_556 A
P12    O12     1.615   .     A
P12    O46     1.613   .     A
P12    O47     1.631   .     A
P12    O48     1.644   .     A
O1     C1      1.380   .     S
O2     C2      1.410   .     S
O3     C3      1.365   .     S
O4     C4      1.379   .     S
O5     C5      1.380   .     S
O6     C6      1.360   .     S
O7     C7      1.375   .     S
O8     C8      1.383   .     S
O9     C9      1.367   .     S
O9     P9      1.617   1_554 A
O10    C10     1.393   1_556 S
O11    C11     1.375   .     S
O11    P11     1.615   1_554 A
O12    C12     1.384   .     S
O15    H1      0.966   .     S
O17    Zn3     1.846   1_455 S
O19    Zn3     1.764   1_455 S
O20    Zn13    1.831   .     S
O21    H2      0.967   .     S
O24    Zn13    1.851   .     S
O27    Zn14    1.844   1_565 S
O30    Zn14    1.866   1_565 S
O33    H3      0.961   .     S
O35    Zn5     1.826   1_545 S
O36    Zn19    1.858   .     S
O37    Zn5     1.810   1_545 S
O37    P9      1.617   1_554 A
O38    Zn15    1.831   .     S
O39    Zn17    1.875   .     S
O40    Zn15    1.833   .     S
O41    Zn16    1.817   .     S
O42    Zn18    1.822   .     S
O43    P11     1.614   1_554 A
O43    Zn6     1.805   1_655 S
O44    Zn16    1.829   .     S
O45    H4      0.967   .     S
O47    Zn6     1.829   1_655 S
O49    H5      0.988   .     S
O49    H6      0.984   .     S
O50    H7      0.987   .     S
O50    H8      0.988   .     S
O51    H9      0.988   .     S
O51    H10     0.991   .     S
O52    H11     0.990   .     S
O52    H12     0.991   1_554 S
H12    O52     0.991   1_556 S
O53    H13     0.992   .     S
O53    H14     0.989   .     S
O54    H15     0.989   .     S
O54    H16     0.989   .     S
O55    H17     0.987   .     S
O55    H18     0.983   .     S
O56    H19     0.988   1_565 S
O56    H20     0.989   1_565 S
H19    O56     0.988   1_545 S
H20    O56     0.989   1_545 S
O57    H21     0.990   .     S
O57    H22     0.991   .     S
O58    H23     0.988   .     S
O58    H24     0.984   .     S
O59    H25     0.991   .     S
O59    H45     0.989   .     S
O60    H27     0.990   .     S
O60    H28     0.990   .     S
O61    H29     0.989   .     S
O61    H30     0.990   .     S
O62    H31     0.990   .     S
O62    H32     0.990   .     S
C1     H33     1.112   .     S
C1     C2      1.538   .     S
C1     C6      1.539   .     S
C2     H34     1.116   .     S
C2     C3      1.538   .     S
C3     H35     1.114   .     S
C3     C4      1.534   .     S
C4     H36     1.117   .     S
C4     C5      1.514   .     S
C5     H37     1.113   .     S
C5     C6      1.515   .     S
C6     H38     1.115   .     S
C7     H39     1.115   .     S
C7     C8      1.537   .     S
C7     C12     1.551   .     S
C8     H40     1.103   .     S
C8     C9      1.525   .     S
C9     H41     1.106   .     S
C9     C10     1.527   .     S
C10    H42     1.115   .     S
C10    C11     1.536   .     S
C10    O10     1.393   1_554 S
C11    H43     1.111   .     S
C11    C12     1.537   .     S
C12    H44     1.117   .     S
Zn11   O76     1.776   .     S
Zn11   O79     1.854   .     S
Zn11   O94     1.814   .     S
Zn11   O97     1.806   .     S
Zn12   O77     1.828   .     S
Zn12   O91     1.819   .     S
Zn12   O95     1.794   .     S
Zn12   O109    1.791   .     S
Zn13   O80     1.846   1_455 S
Zn13   O82     1.764   1_455 S
Zn14   O85     1.861   .     S
Zn14   O88     1.834   .     S
Zn14   O27     1.844   1_545 S
Zn14   O30     1.866   1_545 S
Zn15   O98     1.826   1_545 S
Zn15   O100    1.810   1_545 S
Zn16   O106    1.805   1_655 S
Zn16   O110    1.829   1_655 S
Zn17   O111    1.887   .     S
Zn17   O112    1.825   .     S
Zn17   O113    1.844   .     S
Zn17   O114    1.844   .     S
Zn17   O115    1.852   .     S
Zn18   O92     1.844   .     S
Zn18   O116    1.861   .     S
Zn18   O117    1.815   .     S
Zn18   O118    1.836   .     S
Zn19   O86     1.821   .     S
Zn19   O119    1.823   .     S
Zn19   O120    1.848   .     S
Zn19   O121    1.842   .     S
Zn20   O89     1.809   .     S
Zn20   O122    1.837   .     S
Zn20   O123    1.835   .     S
Zn20   O124    1.845   .     S
Zn20   O125    1.830   .     S
P13    O64     1.622   .     A
P13    O76     1.618   .     A
P13    O77     1.629   .     A
P13    O78     1.609   .     A
P14    O65     1.749   .     S
P14    O79     1.735   .     S
P14    O80     1.752   .     S
P14    O81     1.550   .     D
P15    O66     1.612   .     A
P15    O82     1.611   .     A
P15    O83     1.612   .     A
P15    O84     1.610   .     A
P16    O67     1.614   .     A
P16    O85     1.634   .     A
P16    O86     1.629   .     A
P16    O87     1.631   .     A
P17    O68     1.621   .     A
P17    O88     1.628   .     A
P17    O89     1.625   .     A
P17    O90     1.635   .     A
P18    O69     1.597   .     A
P18    O91     1.614   .     A
P18    O92     1.632   .     A
P18    O93     1.632   .     A
P19    O70     1.623   .     A
P19    O94     1.627   .     A
P19    O95     1.621   .     A
P19    O96     1.604   .     A
P20    O71     1.622   .     A
P20    O97     1.620   .     A
P20    O98     1.633   .     A
P20    O99     1.636   .     A
P21    O101    1.608   .     A
P21    O102    1.647   .     A
P21    O72     1.617   1_554 A
P21    O100    1.617   1_554 A
P22    O73     1.635   .     A
P22    O103    1.622   .     A
P22    O104    1.621   .     A
P22    O105    1.624   .     A
P23    O107    1.625   .     A
P23    O108    1.613   .     A
P23    O74     1.615   1_554 A
P23    O106    1.614   1_554 A
P24    O75     1.615   .     A
P24    O109    1.613   .     A
P24    O110    1.631   .     A
P24    O111    1.644   .     A
O64    C13     1.380   .     S
O65    C14     1.410   .     S
O66    C15     1.365   .     S
O67    C16     1.379   .     S
O68    C17     1.380   .     S
O69    C18     1.360   .     S
O70    C19     1.375   .     S
O71    C20     1.383   .     S
O72    C21     1.367   .     S
O72    P21     1.617   1_556 A
O73    C22     1.393   1_554 S
O74    C23     1.375   .     S
O74    P23     1.615   1_556 A
O75    C24     1.384   .     S
O78    H47     0.966   .     S
O80    Zn13    1.846   1_655 S
O82    Zn13    1.764   1_655 S
O84    H48     0.967   .     S
O90    Zn4     1.844   1_545 S
O93    Zn4     1.866   1_545 S
O96    H49     0.961   .     S
O98    Zn15    1.826   1_565 S
O100   Zn15    1.810   1_565 S
O100   P21     1.617   1_556 A
O106   P23     1.614   1_556 A
O106   Zn16    1.805   1_455 S
O108   H50     0.967   .     S
O110   Zn16    1.829   1_455 S
O112   H51     0.988   .     S
O112   H52     0.984   .     S
O113   H53     0.987   .     S
O113   H54     0.988   .     S
O114   H55     0.988   .     S
O114   H56     0.991   .     S
O115   H57     0.990   .     S
O115   H58     0.991   1_556 S
H58    O115    0.991   1_554 S
O116   H59     0.992   .     S
O116   H60     0.989   .     S
O117   H61     0.989   .     S
O117   H62     0.989   .     S
O118   H63     0.987   .     S
O118   H64     0.983   .     S
O119   H65     0.988   1_545 S
O119   H66     0.989   1_545 S
H65    O119    0.988   1_565 S
H66    O119    0.989   1_565 S
O120   H67     0.990   .     S
O120   H68     0.991   .     S
O121   H69     0.988   .     S
O121   H70     0.984   .     S
O122   H71     0.991   .     S
O122   H91     0.989   .     S
O123   H73     0.990   .     S
O123   H74     0.990   .     S
O124   H75     0.989   .     S
O124   H76     0.990   .     S
O125   H77     0.990   .     S
O125   H78     0.990   .     S
C13    H79     1.112   .     S
C13    C14     1.538   .     S
C13    C18     1.539   .     S
C14    H80     1.116   .     S
C14    C15     1.538   .     S
C15    H81     1.114   .     S
C15    C16     1.534   .     S
C16    H82     1.117   .     S
C16    C17     1.514   .     S
C17    H83     1.113   .     S
C17    C18     1.515   .     S
C18    H84     1.115   .     S
C19    H85     1.115   .     S
C19    C20     1.537   .     S
C19    C24     1.551   .     S
C20    H86     1.103   .     S
C20    C21     1.525   .     S
C21    H87     1.106   .     S
C21    C22     1.527   .     S
C22    H88     1.115   .     S
C22    C23     1.536   .     S
C22    O73     1.393   1_556 S
C23    H89     1.111   .     S
C23    C24     1.537   .     S
C24    H90     1.117   .     S
