data_BECXUF_FSR
_audit_creation_date              2024-06-11
_audit_creation_method            'Materials Studio'
_symmetry_space_group_name_H-M    'P1'
_symmetry_Int_Tables_number       1
_symmetry_cell_setting            triclinic
loop_
_symmetry_equiv_pos_as_xyz
  x,y,z
_cell_length_a                    14.0450
_cell_length_b                    10.1740
_cell_length_c                    18.3390
_cell_angle_alpha                 90.0000
_cell_angle_beta                  106.5970
_cell_angle_gamma                 90.0000
loop_
_atom_site_label
_atom_site_type_symbol
_atom_site_fract_x
_atom_site_fract_y
_atom_site_fract_z
_atom_site_U_iso_or_equiv
_atom_site_adp_type
_atom_site_occupancy
Co1    Co    0.47737   0.27076   0.78264   0.00000  Uiso   1.00
Ca2    Ca    0.05347   0.24568   0.57166   0.00000  Uiso   1.00
P3     P     0.54704   0.99881   0.82217   0.00000  Uiso   1.00
P4     P     0.25805   0.26872   0.74087   0.00000  Uiso   1.00
P5     P     0.56555   0.44892   0.91221   0.00000  Uiso   1.00
C6     C     0.40550   0.19520   0.63110   0.00000  Uiso   1.00
H7     H     0.34450   0.15540   0.63530   0.00000  Uiso   1.00
H8     H     0.41840   0.16270   0.58510   0.00000  Uiso   1.00
C9     C     0.39520   0.34420   0.62780   0.00000  Uiso   1.00
H10    H     0.33040   0.36820   0.59470   0.00000  Uiso   1.00
H11    H     0.44540   0.38170   0.60700   0.00000  Uiso   1.00
C12    C     0.47100   0.51900   0.72110   0.00000  Uiso   1.00
H13    H     0.46450   0.56520   0.76570   0.00000  Uiso   1.00
H14    H     0.45040   0.57770   0.67780   0.00000  Uiso   1.00
C15    C     0.57710   0.47710   0.73290   0.00000  Uiso   1.00
H16    H     0.62130   0.54810   0.75650   0.00000  Uiso   1.00
H17    H     0.58800   0.45800   0.68410   0.00000  Uiso   1.00
C18    C     0.66010   0.25720   0.75350   0.00000  Uiso   1.00
H19    H     0.68970   0.19300   0.79250   0.00000  Uiso   1.00
H20    H     0.71290   0.30090   0.73840   0.00000  Uiso   1.00
C21    C     0.58820   0.18960   0.68460   0.00000  Uiso   1.00
H22    H     0.57680   0.24620   0.64030   0.00000  Uiso   1.00
H23    H     0.61760   0.10840   0.67350   0.00000  Uiso   1.00
C24    C     0.48250   0.01960   0.72200   0.00000  Uiso   1.00
H25    H     0.51140   0.96230   0.69170   0.00000  Uiso   1.00
H26    H     0.41300   0.99620   0.71250   0.00000  Uiso   1.00
C27    C     0.30840   0.42440   0.72040   0.00000  Uiso   1.00
H28    H     0.26370   0.46410   0.67550   0.00000  Uiso   1.00
H29    H     0.31600   0.48440   0.76280   0.00000  Uiso   1.00
C30    C     0.65500   0.39080   0.86480   0.00000  Uiso   1.00
H31    H     0.70380   0.45880   0.86580   0.00000  Uiso   1.00
H32    H     0.68940   0.31410   0.89100   0.00000  Uiso   1.00
N33    N     0.49120   0.16040   0.70010   0.00000  Uiso   1.00
N34    N     0.40750   0.39860   0.70740   0.00000  Uiso   1.00
N35    N     0.60040   0.35610   0.78320   0.00000  Uiso   1.00
O36    O     0.54700   0.13790   0.85411   0.00000  Uiso   1.00
O37    O     0.49940   0.89640   0.85700   0.00000  Uiso   1.00
O38    O     0.65810   0.96400   0.82870   0.00000  Uiso   1.00
H39    H     0.66930   0.88770   0.84300   0.00000  Uiso   1.00
O40    O     0.35170   0.19080   0.78035   0.00000  Uiso   1.00
O41    O     0.19140   0.20540   0.67127   0.00000  Uiso   1.00
O42    O     0.19530   0.29820   0.79660   0.00000  Uiso   1.00
H43    H     0.23150   0.32770   0.83650   0.00000  Uiso   1.00
O44    O     0.46940   0.38090   0.86516   0.00000  Uiso   1.00
O45    O     0.55740   0.59750   0.90415   0.00000  Uiso   1.00
O46    O     0.60060   0.40390   0.99413   0.00000  Uiso   1.00
O47    O     0.13780   0.41300   0.52040   0.00000  Uiso   1.00
H48    H     0.13260   0.49520   0.52670   0.00000  Uiso   1.00
H49    H     0.16030   0.39760   0.48280   0.00000  Uiso   1.00
O50    O     0.91430   0.32060   0.46338   0.00000  Uiso   1.00
H51    H     0.86270   0.27190   0.45200   0.00000  Uiso   1.00
H52    H     0.94330   0.31870   0.42860   0.00000  Uiso   1.00
Co53   Co    0.02263   0.77076   0.71736   0.00000  Uiso   1.00
Ca54   Ca    0.44653   0.74568   0.92834   0.00000  Uiso   1.00
P55    P     0.95296   0.49881   0.67783   0.00000  Uiso   1.00
P56    P     0.24195   0.76872   0.75913   0.00000  Uiso   1.00
P57    P     0.93445   0.94892   0.58779   0.00000  Uiso   1.00
C58    C     0.09450   0.69520   0.86890   0.00000  Uiso   1.00
H59    H     0.15550   0.65540   0.86470   0.00000  Uiso   1.00
H60    H     0.08160   0.66270   0.91490   0.00000  Uiso   1.00
C61    C     0.10480   0.84420   0.87220   0.00000  Uiso   1.00
H62    H     0.16960   0.86820   0.90530   0.00000  Uiso   1.00
H63    H     0.05460   0.88170   0.89300   0.00000  Uiso   1.00
C64    C     0.02900   0.01900   0.77890   0.00000  Uiso   1.00
H65    H     0.03550   0.06520   0.73430   0.00000  Uiso   1.00
H66    H     0.04960   0.07770   0.82220   0.00000  Uiso   1.00
C67    C     0.92290   0.97710   0.76710   0.00000  Uiso   1.00
H68    H     0.87870   0.04810   0.74350   0.00000  Uiso   1.00
H69    H     0.91200   0.95800   0.81590   0.00000  Uiso   1.00
C70    C     0.83990   0.75720   0.74650   0.00000  Uiso   1.00
H71    H     0.81030   0.69300   0.70750   0.00000  Uiso   1.00
H72    H     0.78710   0.80090   0.76160   0.00000  Uiso   1.00
C73    C     0.91180   0.68960   0.81540   0.00000  Uiso   1.00
H74    H     0.92320   0.74620   0.85970   0.00000  Uiso   1.00
H75    H     0.88240   0.60840   0.82650   0.00000  Uiso   1.00
C76    C     0.01750   0.51960   0.77800   0.00000  Uiso   1.00
H77    H     0.98860   0.46230   0.80830   0.00000  Uiso   1.00
H78    H     0.08700   0.49620   0.78750   0.00000  Uiso   1.00
C79    C     0.19160   0.92440   0.77960   0.00000  Uiso   1.00
H80    H     0.23630   0.96410   0.82450   0.00000  Uiso   1.00
H81    H     0.18400   0.98440   0.73720   0.00000  Uiso   1.00
C82    C     0.84500   0.89080   0.63520   0.00000  Uiso   1.00
H83    H     0.79620   0.95880   0.63420   0.00000  Uiso   1.00
H84    H     0.81060   0.81410   0.60900   0.00000  Uiso   1.00
N85    N     0.00880   0.66040   0.79990   0.00000  Uiso   1.00
N86    N     0.09250   0.89860   0.79260   0.00000  Uiso   1.00
N87    N     0.89960   0.85610   0.71680   0.00000  Uiso   1.00
O88    O     0.95300   0.63790   0.64589   0.00000  Uiso   1.00
O89    O     0.00060   0.39640   0.64300   0.00000  Uiso   1.00
O90    O     0.84190   0.46400   0.67130   0.00000  Uiso   1.00
H91    H     0.83070   0.38770   0.65700   0.00000  Uiso   1.00
O92    O     0.14830   0.69080   0.71965   0.00000  Uiso   1.00
O93    O     0.30860   0.70540   0.82873   0.00000  Uiso   1.00
O94    O     0.30470   0.79820   0.70340   0.00000  Uiso   1.00
H95    H     0.26850   0.82770   0.66350   0.00000  Uiso   1.00
O96    O     0.03060   0.88090   0.63484   0.00000  Uiso   1.00
O97    O     0.94260   0.09750   0.59585   0.00000  Uiso   1.00
O98    O     0.89940   0.90390   0.50587   0.00000  Uiso   1.00
O99    O     0.36220   0.91300   0.97960   0.00000  Uiso   1.00
H100   H     0.36740   0.99520   0.97330   0.00000  Uiso   1.00
H101   H     0.33970   0.89760   0.01720   0.00000  Uiso   1.00
O102   O     0.58570   0.82060   0.03662   0.00000  Uiso   1.00
H103   H     0.63730   0.77190   0.04800   0.00000  Uiso   1.00
H104   H     0.55670   0.81870   0.07140   0.00000  Uiso   1.00
Co105  Co    0.52263   0.72924   0.21736   0.00000  Uiso   1.00
Ca106  Ca    0.94653   0.75432   0.42834   0.00000  Uiso   1.00
P107   P     0.45296   0.00119   0.17783   0.00000  Uiso   1.00
P108   P     0.74195   0.73128   0.25913   0.00000  Uiso   1.00
P109   P     0.43445   0.55108   0.08779   0.00000  Uiso   1.00
C110   C     0.59450   0.80480   0.36890   0.00000  Uiso   1.00
H111   H     0.65550   0.84460   0.36470   0.00000  Uiso   1.00
H112   H     0.58160   0.83730   0.41490   0.00000  Uiso   1.00
C113   C     0.60480   0.65580   0.37220   0.00000  Uiso   1.00
H114   H     0.66960   0.63180   0.40530   0.00000  Uiso   1.00
H115   H     0.55460   0.61830   0.39300   0.00000  Uiso   1.00
C116   C     0.52900   0.48100   0.27890   0.00000  Uiso   1.00
H117   H     0.53550   0.43480   0.23430   0.00000  Uiso   1.00
H118   H     0.54960   0.42230   0.32220   0.00000  Uiso   1.00
C119   C     0.42290   0.52290   0.26710   0.00000  Uiso   1.00
H120   H     0.37870   0.45190   0.24350   0.00000  Uiso   1.00
H121   H     0.41200   0.54200   0.31590   0.00000  Uiso   1.00
C122   C     0.33990   0.74280   0.24650   0.00000  Uiso   1.00
H123   H     0.31030   0.80700   0.20750   0.00000  Uiso   1.00
H124   H     0.28710   0.69910   0.26160   0.00000  Uiso   1.00
C125   C     0.41180   0.81040   0.31540   0.00000  Uiso   1.00
H126   H     0.42320   0.75380   0.35970   0.00000  Uiso   1.00
H127   H     0.38240   0.89160   0.32650   0.00000  Uiso   1.00
C128   C     0.51750   0.98040   0.27800   0.00000  Uiso   1.00
H129   H     0.48860   0.03770   0.30830   0.00000  Uiso   1.00
H130   H     0.58700   0.00380   0.28750   0.00000  Uiso   1.00
C131   C     0.69160   0.57560   0.27960   0.00000  Uiso   1.00
H132   H     0.73630   0.53590   0.32450   0.00000  Uiso   1.00
H133   H     0.68400   0.51560   0.23720   0.00000  Uiso   1.00
C134   C     0.34500   0.60920   0.13520   0.00000  Uiso   1.00
H135   H     0.29620   0.54120   0.13420   0.00000  Uiso   1.00
H136   H     0.31060   0.68590   0.10900   0.00000  Uiso   1.00
N137   N     0.50880   0.83960   0.29990   0.00000  Uiso   1.00
N138   N     0.59250   0.60140   0.29260   0.00000  Uiso   1.00
N139   N     0.39960   0.64390   0.21680   0.00000  Uiso   1.00
O140   O     0.45300   0.86210   0.14589   0.00000  Uiso   1.00
O141   O     0.50060   0.10360   0.14300   0.00000  Uiso   1.00
O142   O     0.34190   0.03600   0.17130   0.00000  Uiso   1.00
H143   H     0.33070   0.11230   0.15700   0.00000  Uiso   1.00
O144   O     0.64830   0.80920   0.21965   0.00000  Uiso   1.00
O145   O     0.80860   0.79460   0.32873   0.00000  Uiso   1.00
O146   O     0.80470   0.70180   0.20340   0.00000  Uiso   1.00
H147   H     0.76850   0.67230   0.16350   0.00000  Uiso   1.00
O148   O     0.53060   0.61910   0.13484   0.00000  Uiso   1.00
O149   O     0.44260   0.40250   0.09585   0.00000  Uiso   1.00
O150   O     0.39940   0.59610   0.00587   0.00000  Uiso   1.00
O151   O     0.86220   0.58700   0.47960   0.00000  Uiso   1.00
H152   H     0.86740   0.50480   0.47330   0.00000  Uiso   1.00
H153   H     0.83970   0.60240   0.51720   0.00000  Uiso   1.00
O154   O     0.08570   0.67940   0.53662   0.00000  Uiso   1.00
H155   H     0.13730   0.72810   0.54800   0.00000  Uiso   1.00
H156   H     0.05670   0.68130   0.57140   0.00000  Uiso   1.00
Co157  Co    0.97737   0.22924   0.28264   0.00000  Uiso   1.00
Ca158  Ca    0.55347   0.25432   0.07166   0.00000  Uiso   1.00
P159   P     0.04704   0.50119   0.32217   0.00000  Uiso   1.00
P160   P     0.75805   0.23128   0.24087   0.00000  Uiso   1.00
P161   P     0.06555   0.05108   0.41221   0.00000  Uiso   1.00
C162   C     0.90550   0.30480   0.13110   0.00000  Uiso   1.00
H163   H     0.84450   0.34460   0.13530   0.00000  Uiso   1.00
H164   H     0.91840   0.33730   0.08510   0.00000  Uiso   1.00
C165   C     0.89520   0.15580   0.12780   0.00000  Uiso   1.00
H166   H     0.83040   0.13180   0.09470   0.00000  Uiso   1.00
H167   H     0.94540   0.11830   0.10700   0.00000  Uiso   1.00
C168   C     0.97100   0.98100   0.22110   0.00000  Uiso   1.00
H169   H     0.96450   0.93480   0.26570   0.00000  Uiso   1.00
H170   H     0.95040   0.92230   0.17780   0.00000  Uiso   1.00
C171   C     0.07710   0.02290   0.23290   0.00000  Uiso   1.00
H172   H     0.12130   0.95190   0.25650   0.00000  Uiso   1.00
H173   H     0.08800   0.04200   0.18410   0.00000  Uiso   1.00
C174   C     0.16010   0.24280   0.25350   0.00000  Uiso   1.00
H175   H     0.18970   0.30700   0.29250   0.00000  Uiso   1.00
H176   H     0.21290   0.19910   0.23840   0.00000  Uiso   1.00
C177   C     0.08820   0.31040   0.18460   0.00000  Uiso   1.00
H178   H     0.07680   0.25380   0.14030   0.00000  Uiso   1.00
H179   H     0.11760   0.39160   0.17350   0.00000  Uiso   1.00
C180   C     0.98250   0.48040   0.22200   0.00000  Uiso   1.00
H181   H     0.01140   0.53770   0.19170   0.00000  Uiso   1.00
H182   H     0.91300   0.50380   0.21250   0.00000  Uiso   1.00
C183   C     0.80840   0.07560   0.22040   0.00000  Uiso   1.00
H184   H     0.76370   0.03590   0.17550   0.00000  Uiso   1.00
H185   H     0.81600   0.01560   0.26280   0.00000  Uiso   1.00
C186   C     0.15500   0.10920   0.36480   0.00000  Uiso   1.00
H187   H     0.20380   0.04120   0.36580   0.00000  Uiso   1.00
H188   H     0.18940   0.18590   0.39100   0.00000  Uiso   1.00
N189   N     0.99120   0.33960   0.20010   0.00000  Uiso   1.00
N190   N     0.90750   0.10140   0.20740   0.00000  Uiso   1.00
N191   N     0.10040   0.14390   0.28320   0.00000  Uiso   1.00
O192   O     0.04700   0.36210   0.35411   0.00000  Uiso   1.00
O193   O     0.99940   0.60360   0.35700   0.00000  Uiso   1.00
O194   O     0.15810   0.53600   0.32870   0.00000  Uiso   1.00
H195   H     0.16930   0.61230   0.34300   0.00000  Uiso   1.00
O196   O     0.85170   0.30920   0.28035   0.00000  Uiso   1.00
O197   O     0.69140   0.29460   0.17127   0.00000  Uiso   1.00
O198   O     0.69530   0.20180   0.29660   0.00000  Uiso   1.00
H199   H     0.73150   0.17230   0.33650   0.00000  Uiso   1.00
O200   O     0.96940   0.11910   0.36516   0.00000  Uiso   1.00
O201   O     0.05740   0.90250   0.40415   0.00000  Uiso   1.00
O202   O     0.10060   0.09610   0.49413   0.00000  Uiso   1.00
O203   O     0.63780   0.08700   0.02040   0.00000  Uiso   1.00
H204   H     0.63260   0.00480   0.02670   0.00000  Uiso   1.00
H205   H     0.66030   0.10240   0.98280   0.00000  Uiso   1.00
O206   O     0.41430   0.17940   0.96338   0.00000  Uiso   1.00
H207   H     0.36270   0.22810   0.95200   0.00000  Uiso   1.00
H208   H     0.44330   0.18130   0.92860   0.00000  Uiso   1.00
loop_
_geom_bond_atom_site_label_1
_geom_bond_atom_site_label_2
_geom_bond_distance
_geom_bond_site_symmetry_2
_ccdc_geom_bond_type
Co1    N33     1.938   .     S
Co1    N34     1.946   .     S
Co1    N35     1.931   .     S
Co1    O36     1.941   .     S
Co1    O40     1.933   .     S
Co1    O44     1.912   .     S
Ca2    O41     2.288   .     S
Ca2    O47     2.413   .     S
Ca2    O50     2.475   1_455 S
Ca2    O89     2.274   .     S
Ca2    O97     2.300   1_455 S
Ca2    O202    2.305   .     S
P3     C24     1.814   1_565 S
P3     O37     1.478   .     S
P3     O38     1.570   .     S
P3     O36     1.532   1_565 S
P4     C27     1.817   .     S
P4     O41     1.496   .     S
P4     O42     1.558   .     S
P4     O40     1.529   .     S
P5     C30     1.819   .     S
P5     O45     1.520   .     S
P5     O46     1.512   .     S
P5     O44     1.543   .     S
C6     H7      0.970   .     S
C6     H8      0.970   .     S
C6     C9      1.522   .     S
C6     N33     1.518   .     S
C9     H10     0.970   .     S
C9     H11     0.970   .     S
C9     N34     1.524   .     S
C12    H13     0.970   .     S
C12    H14     0.969   .     S
C12    C15     1.505   .     S
C12    N34     1.494   .     S
C15    H16     0.970   .     S
C15    H17     0.970   .     S
C15    N35     1.517   .     S
C18    H19     0.970   .     S
C18    H20     0.970   .     S
C18    C21     1.536   .     S
C18    N35     1.508   .     S
C21    H22     0.971   .     S
C21    H23     0.971   .     S
C21    N33     1.499   .     S
C24    P3      1.814   1_545 S
C24    H25     0.971   1_545 S
C24    H26     0.971   1_545 S
C24    N33     1.502   .     S
H25    C24     0.971   1_565 S
H26    C24     0.971   1_565 S
C27    H28     0.970   .     S
C27    H29     0.970   .     S
C27    N34     1.501   .     S
C30    H31     0.970   .     S
C30    H32     0.970   .     S
C30    N35     1.515   .     S
O36    P3      1.532   1_545 S
O37    Ca54    2.274   .     S
O38    H39     0.820   .     S
O42    H43     0.819   .     S
O45    Ca54    2.300   .     S
O46    Ca158   2.305   1_556 S
O47    H48     0.850   .     S
O47    H49     0.851   .     S
O50    Ca2     2.475   1_655 S
O50    H51     0.853   .     S
O50    H52     0.849   .     S
Co53   N85     1.938   .     S
Co53   N86     1.946   .     S
Co53   N87     1.931   1_455 S
Co53   O88     1.941   1_455 S
Co53   O92     1.933   .     S
Co53   O96     1.912   .     S
Ca54   O93     2.288   .     S
Ca54   O99     2.413   .     S
Ca54   O102    2.475   1_556 S
Ca54   O150    2.305   1_556 S
P55    C76     1.814   1_655 S
P55    O89     1.478   1_655 S
P55    O90     1.570   .     S
P55    O88     1.532   .     S
P56    C79     1.817   .     S
P56    O93     1.496   .     S
P56    O94     1.558   .     S
P56    O92     1.529   .     S
P57    C82     1.819   .     S
P57    O97     1.520   1_565 S
P57    O98     1.512   .     S
P57    O96     1.543   1_655 S
C58    H59     0.970   .     S
C58    H60     0.970   .     S
C58    C61     1.522   .     S
C58    N85     1.518   .     S
C61    H62     0.970   .     S
C61    H63     0.970   .     S
C61    N86     1.524   .     S
C64    H65     0.970   .     S
C64    H66     0.969   .     S
C64    C67     1.505   1_445 S
C64    N86     1.494   1_545 S
C67    C64     1.505   1_665 S
C67    H68     0.970   1_565 S
C67    H69     0.970   .     S
C67    N87     1.517   .     S
H68    C67     0.970   1_545 S
C70    H71     0.970   .     S
C70    H72     0.970   .     S
C70    C73     1.536   .     S
C70    N87     1.508   .     S
C73    H74     0.971   .     S
C73    H75     0.971   .     S
C73    N85     1.499   1_655 S
C76    P55     1.814   1_455 S
C76    H77     0.971   1_455 S
C76    H78     0.971   .     S
C76    N85     1.502   .     S
H77    C76     0.971   1_655 S
C79    H80     0.970   .     S
C79    H81     0.970   .     S
C79    N86     1.501   .     S
C82    H83     0.970   .     S
C82    H84     0.970   .     S
C82    N87     1.515   .     S
N85    C73     1.499   1_455 S
N86    C64     1.494   1_565 S
N87    Co53    1.931   1_655 S
O88    Co53    1.941   1_655 S
O89    P55     1.478   1_455 S
O90    H91     0.820   .     S
O94    H95     0.819   .     S
O96    P57     1.543   1_455 S
O97    P57     1.520   1_545 S
O97    Ca2     2.300   1_655 S
O98    Ca106   2.305   .     S
O99    H100    0.850   .     S
O99    H101    0.851   1_556 S
H101   O99     0.851   1_554 S
O102   Ca54    2.475   1_554 S
O102   H103    0.853   .     S
O102   H104    0.849   .     S
Co105  N137    1.938   .     S
Co105  N138    1.946   .     S
Co105  N139    1.931   .     S
Co105  O140    1.941   .     S
Co105  O144    1.933   .     S
Co105  O148    1.912   .     S
Ca106  O145    2.288   .     S
Ca106  O151    2.413   .     S
Ca106  O154    2.475   1_655 S
Ca106  O193    2.274   .     S
Ca106  O201    2.300   1_655 S
P107   C128    1.814   1_545 S
P107   O141    1.478   .     S
P107   O142    1.570   .     S
P107   O140    1.532   1_545 S
P108   C131    1.817   .     S
P108   O145    1.496   .     S
P108   O146    1.558   .     S
P108   O144    1.529   .     S
P109   C134    1.819   .     S
P109   O149    1.520   .     S
P109   O150    1.512   .     S
P109   O148    1.543   .     S
C110   H111    0.970   .     S
C110   H112    0.970   .     S
C110   C113    1.522   .     S
C110   N137    1.518   .     S
C113   H114    0.970   .     S
C113   H115    0.970   .     S
C113   N138    1.524   .     S
C116   H117    0.970   .     S
C116   H118    0.969   .     S
C116   C119    1.505   .     S
C116   N138    1.494   .     S
C119   H120    0.970   .     S
C119   H121    0.970   .     S
C119   N139    1.517   .     S
C122   H123    0.970   .     S
C122   H124    0.970   .     S
C122   C125    1.536   .     S
C122   N139    1.508   .     S
C125   H126    0.971   .     S
C125   H127    0.971   .     S
C125   N137    1.499   .     S
C128   P107    1.814   1_565 S
C128   H129    0.971   1_565 S
C128   H130    0.971   1_565 S
C128   N137    1.502   .     S
H129   C128    0.971   1_545 S
H130   C128    0.971   1_545 S
C131   H132    0.970   .     S
C131   H133    0.970   .     S
C131   N138    1.501   .     S
C134   H135    0.970   .     S
C134   H136    0.970   .     S
C134   N139    1.515   .     S
O140   P107    1.532   1_565 S
O141   Ca158   2.274   .     S
O142   H143    0.820   .     S
O146   H147    0.819   .     S
O149   Ca158   2.300   .     S
O150   Ca54    2.305   1_554 S
O151   H152    0.850   .     S
O151   H153    0.851   .     S
O154   Ca106   2.475   1_455 S
O154   H155    0.853   .     S
O154   H156    0.849   .     S
Co157  N189    1.938   .     S
Co157  N190    1.946   .     S
Co157  N191    1.931   1_655 S
Co157  O192    1.941   1_655 S
Co157  O196    1.933   .     S
Co157  O200    1.912   .     S
Ca158  O197    2.288   .     S
Ca158  O203    2.413   .     S
Ca158  O206    2.475   1_554 S
Ca158  O46     2.305   1_554 S
P159   C180    1.814   1_455 S
P159   O193    1.478   1_455 S
P159   O194    1.570   .     S
P159   O192    1.532   .     S
P160   C183    1.817   .     S
P160   O197    1.496   .     S
P160   O198    1.558   .     S
P160   O196    1.529   .     S
P161   C186    1.819   .     S
P161   O201    1.520   1_545 S
P161   O202    1.512   .     S
P161   O200    1.543   1_455 S
C162   H163    0.970   .     S
C162   H164    0.970   .     S
C162   C165    1.522   .     S
C162   N189    1.518   .     S
C165   H166    0.970   .     S
C165   H167    0.970   .     S
C165   N190    1.524   .     S
C168   H169    0.970   .     S
C168   H170    0.969   .     S
C168   C171    1.505   1_665 S
C168   N190    1.494   1_565 S
C171   C168    1.505   1_445 S
C171   H172    0.970   1_545 S
C171   H173    0.970   .     S
C171   N191    1.517   .     S
H172   C171    0.970   1_565 S
C174   H175    0.970   .     S
C174   H176    0.970   .     S
C174   C177    1.536   .     S
C174   N191    1.508   .     S
C177   H178    0.971   .     S
C177   H179    0.971   .     S
C177   N189    1.499   1_455 S
C180   P159    1.814   1_655 S
C180   H181    0.971   1_655 S
C180   H182    0.971   .     S
C180   N189    1.502   .     S
H181   C180    0.971   1_455 S
C183   H184    0.970   .     S
C183   H185    0.970   .     S
C183   N190    1.501   .     S
C186   H187    0.970   .     S
C186   H188    0.970   .     S
C186   N191    1.515   .     S
N189   C177    1.499   1_655 S
N190   C168    1.494   1_545 S
N191   Co157   1.931   1_455 S
O192   Co157   1.941   1_455 S
O193   P159    1.478   1_655 S
O194   H195    0.820   .     S
O198   H199    0.819   .     S
O200   P161    1.543   1_655 S
O201   P161    1.520   1_565 S
O201   Ca106   2.300   1_455 S
O203   H204    0.850   .     S
O203   H205    0.851   1_554 S
H205   O203    0.851   1_556 S
O206   Ca158   2.475   1_556 S
O206   H207    0.853   .     S
O206   H208    0.849   .     S
