data_BECYAM_FSR
_audit_creation_date              2024-06-11
_audit_creation_method            'Materials Studio'
_symmetry_space_group_name_H-M    'P1'
_symmetry_Int_Tables_number       1
_symmetry_cell_setting            triclinic
loop_
_symmetry_equiv_pos_as_xyz
  x,y,z
_cell_length_a                    13.3180
_cell_length_b                    10.2245
_cell_length_c                    19.2170
_cell_angle_alpha                 90.0000
_cell_angle_beta                  109.6000
_cell_angle_gamma                 90.0000
loop_
_atom_site_label
_atom_site_type_symbol
_atom_site_fract_x
_atom_site_fract_y
_atom_site_fract_z
_atom_site_U_iso_or_equiv
_atom_site_adp_type
_atom_site_occupancy
Co1    Co    0.80500   0.73707   0.10869   0.00000  Uiso   1.00
Ca2    Ca    0.91931   0.75958   0.44143   0.00000  Uiso   1.00
P3     P     0.77908   0.00668   0.05154   0.00000  Uiso   1.00
P4     P     0.76505   0.73888   0.25071   0.00000  Uiso   1.00
P5     P     0.65976   0.55689   0.00006   0.00000  Uiso   1.00
C6     C     0.99050   0.81210   0.21930   0.00000  Uiso   1.00
H7     H     0.95600   0.85060   0.25160   0.00000  Uiso   1.00
H8     H     0.06290   0.84510   0.23370   0.00000  Uiso   1.00
C9     C     0.99170   0.66430   0.22630   0.00000  Uiso   1.00
H10    H     0.04470   0.62770   0.20750   0.00000  Uiso   1.00
H11    H     0.01020   0.63980   0.27780   0.00000  Uiso   1.00
C12    C     0.89200   0.49150   0.14020   0.00000  Uiso   1.00
H13    H     0.82430   0.44580   0.12270   0.00000  Uiso   1.00
H14    H     0.94510   0.43270   0.17160   0.00000  Uiso   1.00
C15    C     0.92430   0.53450   0.07540   0.00000  Uiso   1.00
H16    H     0.99980   0.55490   0.09230   0.00000  Uiso   1.00
H17    H     0.91160   0.46400   0.03970   0.00000  Uiso   1.00
C18    C     0.93130   0.75340   0.02100   0.00000  Uiso   1.00
H19    H     0.88740   0.81740   0.98690   0.00000  Uiso   1.00
H20    H     0.97730   0.71180   0.99760   0.00000  Uiso   1.00
C21    C     0.99770   0.81970   0.09160   0.00000  Uiso   1.00
H22    H     0.02650   0.90070   0.08000   0.00000  Uiso   1.00
H23    H     0.05700   0.76360   0.11800   0.00000  Uiso   1.00
C24    C     0.89380   0.98640   0.13460   0.00000  Uiso   1.00
H25    H     0.95070   0.04430   0.13300   0.00000  Uiso   1.00
H26    H     0.87470   0.00890   0.17760   0.00000  Uiso   1.00
C27    C     0.81850   0.58380   0.23250   0.00000  Uiso   1.00
H28    H     0.86350   0.54480   0.27840   0.00000  Uiso   1.00
H29    H     0.76090   0.52360   0.20870   0.00000  Uiso   1.00
C30    C     0.76950   0.61720   0.97200   0.00000  Uiso   1.00
H31    H     0.79110   0.55030   0.94410   0.00000  Uiso   1.00
H32    H     0.74670   0.69350   0.94060   0.00000  Uiso   1.00
N33    N     0.88250   0.61110   0.18270   0.00000  Uiso   1.00
N34    N     0.93060   0.84840   0.14020   0.00000  Uiso   1.00
N35    N     0.86170   0.65240   0.03950   0.00000  Uiso   1.00
O36    O     0.73330   0.86770   0.03610   0.00000  Uiso   1.00
O37    O     0.70650   0.10800   0.06100   0.00000  Uiso   1.00
O38    O     0.82280   0.04200   0.98780   0.00000  Uiso   1.00
H39    H     0.80860   0.11850   0.97560   0.00000  Uiso   1.00
O40    O     0.74820   0.81450   0.17890   0.00000  Uiso   1.00
O41    O     0.83540   0.80230   0.31890   0.00000  Uiso   1.00
O42    O     0.65600   0.71020   0.26150   0.00000  Uiso   1.00
H43    H     0.61530   0.67590   0.22400   0.00000  Uiso   1.00
O44    O     0.68130   0.62540   0.07460   0.00000  Uiso   1.00
O45    O     0.55590   0.59820   0.94230   0.00000  Uiso   1.00
O46    O     0.66820   0.40900   0.00860   0.00000  Uiso   1.00
O47    O     0.02920   0.58890   0.41850   0.00000  Uiso   1.00
H48    H     0.00980   0.50970   0.41850   0.00000  Uiso   1.00
H49    H     0.09250   0.59930   0.44800   0.00000  Uiso   1.00
O50    O     0.01250   0.68420   0.56900   0.00000  Uiso   1.00
H51    H     0.07760   0.70160   0.57620   0.00000  Uiso   1.00
H52    H     0.99020   0.72620   0.59920   0.00000  Uiso   1.00
Co53   Co    0.69500   0.23707   0.39131   0.00000  Uiso   1.00
Ca54   Ca    0.58069   0.25958   0.05857   0.00000  Uiso   1.00
P55    P     0.72092   0.50668   0.44846   0.00000  Uiso   1.00
P56    P     0.73495   0.23888   0.24929   0.00000  Uiso   1.00
P57    P     0.84024   0.05689   0.49994   0.00000  Uiso   1.00
C58    C     0.50950   0.31210   0.28070   0.00000  Uiso   1.00
H59    H     0.54400   0.35060   0.24840   0.00000  Uiso   1.00
H60    H     0.43710   0.34510   0.26630   0.00000  Uiso   1.00
C61    C     0.50830   0.16430   0.27370   0.00000  Uiso   1.00
H62    H     0.45530   0.12770   0.29250   0.00000  Uiso   1.00
H63    H     0.48980   0.13980   0.22220   0.00000  Uiso   1.00
C64    C     0.60800   0.99150   0.35980   0.00000  Uiso   1.00
H65    H     0.67570   0.94580   0.37730   0.00000  Uiso   1.00
H66    H     0.55490   0.93270   0.32840   0.00000  Uiso   1.00
C67    C     0.57570   0.03450   0.42460   0.00000  Uiso   1.00
H68    H     0.50020   0.05490   0.40770   0.00000  Uiso   1.00
H69    H     0.58840   0.96400   0.46030   0.00000  Uiso   1.00
C70    C     0.56870   0.25340   0.47900   0.00000  Uiso   1.00
H71    H     0.61260   0.31740   0.51310   0.00000  Uiso   1.00
H72    H     0.52270   0.21180   0.50240   0.00000  Uiso   1.00
C73    C     0.50230   0.31970   0.40840   0.00000  Uiso   1.00
H74    H     0.47350   0.40070   0.42000   0.00000  Uiso   1.00
H75    H     0.44300   0.26360   0.38200   0.00000  Uiso   1.00
C76    C     0.60620   0.48640   0.36540   0.00000  Uiso   1.00
H77    H     0.54930   0.54430   0.36700   0.00000  Uiso   1.00
H78    H     0.62530   0.50890   0.32240   0.00000  Uiso   1.00
C79    C     0.68150   0.08380   0.26750   0.00000  Uiso   1.00
H80    H     0.63650   0.04480   0.22160   0.00000  Uiso   1.00
H81    H     0.73910   0.02360   0.29130   0.00000  Uiso   1.00
C82    C     0.73050   0.11720   0.52800   0.00000  Uiso   1.00
H83    H     0.70890   0.05030   0.55590   0.00000  Uiso   1.00
H84    H     0.75330   0.19350   0.55940   0.00000  Uiso   1.00
N85    N     0.61750   0.11110   0.31730   0.00000  Uiso   1.00
N86    N     0.56940   0.34840   0.35980   0.00000  Uiso   1.00
N87    N     0.63830   0.15240   0.46050   0.00000  Uiso   1.00
O88    O     0.76670   0.36770   0.46390   0.00000  Uiso   1.00
O89    O     0.79350   0.60800   0.43900   0.00000  Uiso   1.00
O90    O     0.67720   0.54200   0.51220   0.00000  Uiso   1.00
H91    H     0.69140   0.61850   0.52440   0.00000  Uiso   1.00
O92    O     0.75180   0.31450   0.32110   0.00000  Uiso   1.00
O93    O     0.66460   0.30230   0.18110   0.00000  Uiso   1.00
O94    O     0.84400   0.21020   0.23850   0.00000  Uiso   1.00
H95    H     0.88470   0.17590   0.27600   0.00000  Uiso   1.00
O96    O     0.81870   0.12540   0.42540   0.00000  Uiso   1.00
O97    O     0.94410   0.09820   0.55770   0.00000  Uiso   1.00
O98    O     0.83180   0.90900   0.49140   0.00000  Uiso   1.00
O99    O     0.47080   0.08890   0.08150   0.00000  Uiso   1.00
H100   H     0.49020   0.00970   0.08150   0.00000  Uiso   1.00
H101   H     0.40750   0.09930   0.05200   0.00000  Uiso   1.00
O102   O     0.48750   0.18420   0.93100   0.00000  Uiso   1.00
H103   H     0.42240   0.20160   0.92380   0.00000  Uiso   1.00
H104   H     0.50980   0.22620   0.90080   0.00000  Uiso   1.00
Co105  Co    0.19500   0.26293   0.89131   0.00000  Uiso   1.00
Ca106  Ca    0.08069   0.24042   0.55857   0.00000  Uiso   1.00
P107   P     0.22092   0.99332   0.94846   0.00000  Uiso   1.00
P108   P     0.23495   0.26112   0.74929   0.00000  Uiso   1.00
P109   P     0.34024   0.44311   0.99994   0.00000  Uiso   1.00
C110   C     0.00950   0.18790   0.78070   0.00000  Uiso   1.00
H111   H     0.04400   0.14940   0.74840   0.00000  Uiso   1.00
H112   H     0.93710   0.15490   0.76630   0.00000  Uiso   1.00
C113   C     0.00830   0.33570   0.77370   0.00000  Uiso   1.00
H114   H     0.95530   0.37230   0.79250   0.00000  Uiso   1.00
H115   H     0.98980   0.36020   0.72220   0.00000  Uiso   1.00
C116   C     0.10800   0.50850   0.85980   0.00000  Uiso   1.00
H117   H     0.17570   0.55420   0.87730   0.00000  Uiso   1.00
H118   H     0.05490   0.56730   0.82840   0.00000  Uiso   1.00
C119   C     0.07570   0.46550   0.92460   0.00000  Uiso   1.00
H120   H     0.00020   0.44510   0.90770   0.00000  Uiso   1.00
H121   H     0.08840   0.53600   0.96030   0.00000  Uiso   1.00
C122   C     0.06870   0.24660   0.97900   0.00000  Uiso   1.00
H123   H     0.11260   0.18260   0.01310   0.00000  Uiso   1.00
H124   H     0.02270   0.28820   0.00240   0.00000  Uiso   1.00
C125   C     0.00230   0.18030   0.90840   0.00000  Uiso   1.00
H126   H     0.97350   0.09930   0.92000   0.00000  Uiso   1.00
H127   H     0.94300   0.23640   0.88200   0.00000  Uiso   1.00
C128   C     0.10620   0.01360   0.86540   0.00000  Uiso   1.00
H129   H     0.04930   0.95570   0.86700   0.00000  Uiso   1.00
H130   H     0.12530   0.99110   0.82240   0.00000  Uiso   1.00
C131   C     0.18150   0.41620   0.76750   0.00000  Uiso   1.00
H132   H     0.13650   0.45520   0.72160   0.00000  Uiso   1.00
H133   H     0.23910   0.47640   0.79130   0.00000  Uiso   1.00
C134   C     0.23050   0.38280   0.02800   0.00000  Uiso   1.00
H135   H     0.20890   0.44970   0.05590   0.00000  Uiso   1.00
H136   H     0.25330   0.30650   0.05940   0.00000  Uiso   1.00
N137   N     0.11750   0.38890   0.81730   0.00000  Uiso   1.00
N138   N     0.06940   0.15160   0.85980   0.00000  Uiso   1.00
N139   N     0.13830   0.34760   0.96050   0.00000  Uiso   1.00
O140   O     0.26670   0.13230   0.96390   0.00000  Uiso   1.00
O141   O     0.29350   0.89200   0.93900   0.00000  Uiso   1.00
O142   O     0.17720   0.95800   0.01220   0.00000  Uiso   1.00
H143   H     0.19140   0.88150   0.02440   0.00000  Uiso   1.00
O144   O     0.25180   0.18550   0.82110   0.00000  Uiso   1.00
O145   O     0.16460   0.19770   0.68110   0.00000  Uiso   1.00
O146   O     0.34400   0.28980   0.73850   0.00000  Uiso   1.00
H147   H     0.38470   0.32410   0.77600   0.00000  Uiso   1.00
O148   O     0.31870   0.37460   0.92540   0.00000  Uiso   1.00
O149   O     0.44410   0.40180   0.05770   0.00000  Uiso   1.00
O150   O     0.33180   0.59100   0.99140   0.00000  Uiso   1.00
O151   O     0.97080   0.41110   0.58150   0.00000  Uiso   1.00
H152   H     0.99020   0.49030   0.58150   0.00000  Uiso   1.00
H153   H     0.90750   0.40070   0.55200   0.00000  Uiso   1.00
O154   O     0.98750   0.31580   0.43100   0.00000  Uiso   1.00
H155   H     0.92240   0.29840   0.42380   0.00000  Uiso   1.00
H156   H     0.00980   0.27380   0.40080   0.00000  Uiso   1.00
Co157  Co    0.30500   0.76293   0.60869   0.00000  Uiso   1.00
Ca158  Ca    0.41931   0.74042   0.94143   0.00000  Uiso   1.00
P159   P     0.27908   0.49332   0.55154   0.00000  Uiso   1.00
P160   P     0.26505   0.76112   0.75071   0.00000  Uiso   1.00
P161   P     0.15976   0.94311   0.50006   0.00000  Uiso   1.00
C162   C     0.49050   0.68790   0.71930   0.00000  Uiso   1.00
H163   H     0.45600   0.64940   0.75160   0.00000  Uiso   1.00
H164   H     0.56290   0.65490   0.73370   0.00000  Uiso   1.00
C165   C     0.49170   0.83570   0.72630   0.00000  Uiso   1.00
H166   H     0.54470   0.87230   0.70750   0.00000  Uiso   1.00
H167   H     0.51020   0.86020   0.77780   0.00000  Uiso   1.00
C168   C     0.39200   0.00850   0.64020   0.00000  Uiso   1.00
H169   H     0.32430   0.05420   0.62270   0.00000  Uiso   1.00
H170   H     0.44510   0.06730   0.67160   0.00000  Uiso   1.00
C171   C     0.42430   0.96550   0.57540   0.00000  Uiso   1.00
H172   H     0.49980   0.94510   0.59230   0.00000  Uiso   1.00
H173   H     0.41160   0.03600   0.53970   0.00000  Uiso   1.00
C174   C     0.43130   0.74660   0.52100   0.00000  Uiso   1.00
H175   H     0.38740   0.68260   0.48690   0.00000  Uiso   1.00
H176   H     0.47730   0.78820   0.49760   0.00000  Uiso   1.00
C177   C     0.49770   0.68030   0.59160   0.00000  Uiso   1.00
H178   H     0.52650   0.59930   0.58000   0.00000  Uiso   1.00
H179   H     0.55700   0.73640   0.61800   0.00000  Uiso   1.00
C180   C     0.39380   0.51360   0.63460   0.00000  Uiso   1.00
H181   H     0.45070   0.45570   0.63300   0.00000  Uiso   1.00
H182   H     0.37470   0.49110   0.67760   0.00000  Uiso   1.00
C183   C     0.31850   0.91620   0.73250   0.00000  Uiso   1.00
H184   H     0.36350   0.95520   0.77840   0.00000  Uiso   1.00
H185   H     0.26090   0.97640   0.70870   0.00000  Uiso   1.00
C186   C     0.26950   0.88280   0.47200   0.00000  Uiso   1.00
H187   H     0.29110   0.94970   0.44410   0.00000  Uiso   1.00
H188   H     0.24670   0.80650   0.44060   0.00000  Uiso   1.00
N189   N     0.38250   0.88890   0.68270   0.00000  Uiso   1.00
N190   N     0.43060   0.65160   0.64020   0.00000  Uiso   1.00
N191   N     0.36170   0.84760   0.53950   0.00000  Uiso   1.00
O192   O     0.23330   0.63230   0.53610   0.00000  Uiso   1.00
O193   O     0.20650   0.39200   0.56100   0.00000  Uiso   1.00
O194   O     0.32280   0.45800   0.48780   0.00000  Uiso   1.00
H195   H     0.30860   0.38150   0.47560   0.00000  Uiso   1.00
O196   O     0.24820   0.68550   0.67890   0.00000  Uiso   1.00
O197   O     0.33540   0.69770   0.81890   0.00000  Uiso   1.00
O198   O     0.15600   0.78980   0.76150   0.00000  Uiso   1.00
H199   H     0.11530   0.82410   0.72400   0.00000  Uiso   1.00
O200   O     0.18130   0.87460   0.57460   0.00000  Uiso   1.00
O201   O     0.05590   0.90180   0.44230   0.00000  Uiso   1.00
O202   O     0.16820   0.09100   0.50860   0.00000  Uiso   1.00
O203   O     0.52920   0.91110   0.91850   0.00000  Uiso   1.00
H204   H     0.50980   0.99030   0.91850   0.00000  Uiso   1.00
H205   H     0.59250   0.90070   0.94800   0.00000  Uiso   1.00
O206   O     0.51250   0.81580   0.06900   0.00000  Uiso   1.00
H207   H     0.57760   0.79840   0.07620   0.00000  Uiso   1.00
H208   H     0.49020   0.77380   0.09920   0.00000  Uiso   1.00
loop_
_geom_bond_atom_site_label_1
_geom_bond_atom_site_label_2
_geom_bond_distance
_geom_bond_site_symmetry_2
_ccdc_geom_bond_type
Co1    N33     1.940   .     S
Co1    N34     1.944   .     S
Co1    N35     1.939   .     S
Co1    O36     1.936   .     S
Co1    O40     1.925   .     S
Co1    O44     1.929   .     S
Ca2    O41     2.284   .     S
Ca2    O47     2.411   1_655 S
Ca2    O50     2.470   1_655 S
Ca2    O89     2.271   .     S
Ca2    O201    2.325   1_655 S
Ca2    O98     2.316   .     S
P3     C24     1.814   1_545 S
P3     O37     1.469   .     S
P3     O38     1.565   1_554 S
P3     O36     1.535   1_545 S
P4     C27     1.819   .     S
P4     O41     1.480   .     S
P4     O42     1.562   .     S
P4     O40     1.531   .     S
P5     C30     1.826   1_554 S
P5     O45     1.514   1_554 S
P5     O46     1.521   .     S
P5     O44     1.533   .     S
C6     H7      0.971   .     S
C6     H8      0.970   1_655 S
C6     C9      1.517   .     S
C6     N34     1.507   .     S
H8     C6      0.970   1_455 S
C9     H10     0.969   1_655 S
C9     H11     0.969   1_655 S
C9     N33     1.515   .     S
H10    C9      0.969   1_455 S
H11    C9      0.969   1_455 S
C12    H13     0.970   .     S
C12    H14     0.969   .     S
C12    C15     1.513   .     S
C12    N33     1.499   .     S
C15    H16     0.970   .     S
C15    H17     0.970   .     S
C15    N35     1.496   .     S
C18    H19     0.971   1_554 S
C18    H20     0.971   1_554 S
C18    C21     1.509   .     S
C18    N35     1.508   .     S
H19    C18     0.971   1_556 S
H20    C18     0.971   1_556 S
C21    H22     0.970   1_655 S
C21    H23     0.970   1_655 S
C21    N34     1.522   .     S
H22    C21     0.970   1_455 S
H23    C21     0.970   1_455 S
C24    P3      1.814   1_565 S
C24    H25     0.970   1_565 S
C24    H26     0.970   1_565 S
C24    N34     1.486   .     S
H25    C24     0.970   1_545 S
H26    C24     0.970   1_545 S
C27    H28     0.970   .     S
C27    H29     0.970   .     S
C27    N33     1.506   .     S
C30    P5      1.826   1_556 S
C30    H31     0.970   .     S
C30    H32     0.971   .     S
C30    N35     1.500   1_556 S
N35    C30     1.500   1_554 S
O36    P3      1.535   1_565 S
O37    Ca54    2.271   .     S
O38    P3      1.565   1_556 S
O38    H39     0.820   .     S
O42    H43     0.821   .     S
O45    P5      1.514   1_556 S
O45    Ca158   2.325   .     S
O46    Ca54    2.316   .     S
O47    Ca2     2.411   1_455 S
O47    H48     0.850   .     S
O47    H49     0.850   .     S
O50    Ca2     2.470   1_455 S
O50    H51     0.850   .     S
O50    H52     0.852   1_455 S
H52    O50     0.852   1_655 S
Co53   N85     1.940   .     S
Co53   N86     1.944   .     S
Co53   N87     1.939   .     S
Co53   O88     1.936   .     S
Co53   O92     1.925   .     S
Co53   O96     1.929   .     S
Ca54   O93     2.284   .     S
Ca54   O99     2.411   .     S
Ca54   O102    2.470   1_554 S
Ca54   O149    2.325   .     S
P55    C76     1.814   .     S
P55    O89     1.469   .     S
P55    O90     1.565   .     S
P55    O88     1.535   .     S
P56    C79     1.819   .     S
P56    O93     1.480   .     S
P56    O94     1.562   .     S
P56    O92     1.531   .     S
P57    C82     1.826   .     S
P57    O97     1.514   .     S
P57    O98     1.521   1_545 S
P57    O96     1.533   .     S
C58    H59     0.971   .     S
C58    H60     0.970   .     S
C58    C61     1.517   .     S
C58    N86     1.507   .     S
C61    H62     0.969   .     S
C61    H63     0.969   .     S
C61    N85     1.515   .     S
C64    H65     0.970   .     S
C64    H66     0.969   .     S
C64    C67     1.513   1_565 S
C64    N85     1.499   1_565 S
C67    C64     1.513   1_545 S
C67    H68     0.970   .     S
C67    H69     0.970   1_545 S
C67    N87     1.496   .     S
H69    C67     0.970   1_565 S
C70    H71     0.971   .     S
C70    H72     0.971   .     S
C70    C73     1.509   .     S
C70    N87     1.508   .     S
C73    H74     0.970   .     S
C73    H75     0.970   .     S
C73    N86     1.522   .     S
C76    H77     0.970   .     S
C76    H78     0.970   .     S
C76    N86     1.486   .     S
C79    H80     0.970   .     S
C79    H81     0.970   .     S
C79    N85     1.506   .     S
C82    H83     0.970   .     S
C82    H84     0.971   .     S
C82    N87     1.500   .     S
N85    C64     1.499   1_545 S
O90    H91     0.820   .     S
O94    H95     0.821   .     S
O97    Ca106   2.325   1_655 S
O98    P57     1.521   1_565 S
O99    H100    0.850   .     S
O99    H101    0.850   .     S
O102   Ca54    2.470   1_556 S
O102   H103    0.850   .     S
O102   H104    0.852   .     S
Co105  N137    1.940   .     S
Co105  N138    1.944   .     S
Co105  N139    1.939   .     S
Co105  O140    1.936   .     S
Co105  O144    1.925   .     S
Co105  O148    1.929   .     S
Ca106  O145    2.284   .     S
Ca106  O151    2.411   1_455 S
Ca106  O154    2.470   1_455 S
Ca106  O193    2.271   .     S
Ca106  O97     2.325   1_455 S
Ca106  O202    2.316   .     S
P107   C128    1.814   1_565 S
P107   O141    1.469   .     S
P107   O142    1.565   1_556 S
P107   O140    1.535   1_565 S
P108   C131    1.819   .     S
P108   O145    1.480   .     S
P108   O146    1.562   .     S
P108   O144    1.531   .     S
P109   C134    1.826   1_556 S
P109   O149    1.514   1_556 S
P109   O150    1.521   .     S
P109   O148    1.533   .     S
C110   H111    0.971   .     S
C110   H112    0.970   1_455 S
C110   C113    1.517   .     S
C110   N138    1.507   .     S
H112   C110    0.970   1_655 S
C113   H114    0.969   1_455 S
C113   H115    0.969   1_455 S
C113   N137    1.515   .     S
H114   C113    0.969   1_655 S
H115   C113    0.969   1_655 S
C116   H117    0.970   .     S
C116   H118    0.969   .     S
C116   C119    1.513   .     S
C116   N137    1.499   .     S
C119   H120    0.970   .     S
C119   H121    0.970   .     S
C119   N139    1.496   .     S
C122   H123    0.971   1_556 S
C122   H124    0.971   1_556 S
C122   C125    1.509   .     S
C122   N139    1.508   .     S
H123   C122    0.971   1_554 S
H124   C122    0.971   1_554 S
C125   H126    0.970   1_455 S
C125   H127    0.970   1_455 S
C125   N138    1.522   .     S
H126   C125    0.970   1_655 S
H127   C125    0.970   1_655 S
C128   P107    1.814   1_545 S
C128   H129    0.970   1_545 S
C128   H130    0.970   1_545 S
C128   N138    1.486   .     S
H129   C128    0.970   1_565 S
H130   C128    0.970   1_565 S
C131   H132    0.970   .     S
C131   H133    0.970   .     S
C131   N137    1.506   .     S
C134   P109    1.826   1_554 S
C134   H135    0.970   .     S
C134   H136    0.971   .     S
C134   N139    1.500   1_554 S
N139   C134    1.500   1_556 S
O140   P107    1.535   1_545 S
O141   Ca158   2.271   .     S
O142   P107    1.565   1_554 S
O142   H143    0.820   .     S
O146   H147    0.821   .     S
O149   P109    1.514   1_554 S
O150   Ca158   2.316   .     S
O151   Ca106   2.411   1_655 S
O151   H152    0.850   .     S
O151   H153    0.850   .     S
O154   Ca106   2.470   1_655 S
O154   H155    0.850   .     S
O154   H156    0.852   1_655 S
H156   O154    0.852   1_455 S
Co157  N189    1.940   .     S
Co157  N190    1.944   .     S
Co157  N191    1.939   .     S
Co157  O192    1.936   .     S
Co157  O196    1.925   .     S
Co157  O200    1.929   .     S
Ca158  O197    2.284   .     S
Ca158  O203    2.411   .     S
Ca158  O206    2.470   1_556 S
P159   C180    1.814   .     S
P159   O193    1.469   .     S
P159   O194    1.565   .     S
P159   O192    1.535   .     S
P160   C183    1.819   .     S
P160   O197    1.480   .     S
P160   O198    1.562   .     S
P160   O196    1.531   .     S
P161   C186    1.826   .     S
P161   O201    1.514   .     S
P161   O202    1.521   1_565 S
P161   O200    1.533   .     S
C162   H163    0.971   .     S
C162   H164    0.970   .     S
C162   C165    1.517   .     S
C162   N190    1.507   .     S
C165   H166    0.969   .     S
C165   H167    0.969   .     S
C165   N189    1.515   .     S
C168   H169    0.970   .     S
C168   H170    0.969   .     S
C168   C171    1.513   1_545 S
C168   N189    1.499   1_545 S
C171   C168    1.513   1_565 S
C171   H172    0.970   .     S
C171   H173    0.970   1_565 S
C171   N191    1.496   .     S
H173   C171    0.970   1_545 S
C174   H175    0.971   .     S
C174   H176    0.971   .     S
C174   C177    1.509   .     S
C174   N191    1.508   .     S
C177   H178    0.970   .     S
C177   H179    0.970   .     S
C177   N190    1.522   .     S
C180   H181    0.970   .     S
C180   H182    0.970   .     S
C180   N190    1.486   .     S
C183   H184    0.970   .     S
C183   H185    0.970   .     S
C183   N189    1.506   .     S
C186   H187    0.970   .     S
C186   H188    0.971   .     S
C186   N191    1.500   .     S
N189   C168    1.499   1_565 S
O194   H195    0.820   .     S
O198   H199    0.821   .     S
O201   Ca2     2.325   1_455 S
O202   P161    1.521   1_545 S
O203   H204    0.850   .     S
O203   H205    0.850   .     S
O206   Ca158   2.470   1_554 S
O206   H207    0.850   .     S
O206   H208    0.852   .     S
