data_BOQWOV_direct
_audit_creation_date              2024-06-11
_audit_creation_method            'Materials Studio'
_symmetry_space_group_name_H-M    'P1'
_symmetry_Int_Tables_number       1
_symmetry_cell_setting            triclinic
loop_
_symmetry_equiv_pos_as_xyz
  x,y,z
_cell_length_a                    7.9038
_cell_length_b                    9.2715
_cell_length_c                    9.2904
_cell_angle_alpha                 61.6440
_cell_angle_beta                  72.4620
_cell_angle_gamma                 82.7940
loop_
_atom_site_label
_atom_site_type_symbol
_atom_site_fract_x
_atom_site_fract_y
_atom_site_fract_z
_atom_site_U_iso_or_equiv
_atom_site_adp_type
_atom_site_occupancy
Zn1    Zn    0.49062   0.16794   0.17207   0.00000  Uiso   1.00
O2     O     0.66971   0.34702   1.00575   0.00000  Uiso   1.00
O3     O     0.32493   0.12862   0.06173   0.00000  Uiso   1.00
O4     O     0.65605   0.63764   0.85461   0.00000  Uiso   1.00
O5     O     0.65583   0.96982   0.59615   0.00000  Uiso   1.00
O6     O     0.36258  -0.02503   0.91128   0.00000  Uiso   1.00
O7     O     0.66402   0.13016   0.30377   0.00000  Uiso   1.00
C8     C     0.58855   0.50156   0.95891   0.00000  Uiso   1.00
C9     C     0.41615   0.02545   0.98964   0.00000  Uiso   1.00
C10    C     0.58729   0.02369   0.47846   0.00000  Uiso   1.00
K11    K     0.97443   0.25520   0.07460   0.00000  Uiso   1.00
O12    O     0.89226   0.47597   0.14878   0.00000  Uiso   1.00
O13    O    -0.03174   0.30125   0.38921   0.00000  Uiso   1.00
C14    C     0.56283   0.46474   0.44402   0.00000  Uiso   1.00
C15    C     0.88101   0.41896   0.32033   0.00000  Uiso   1.00
C16    C     0.75707   0.49406   0.42383   0.00000  Uiso   1.00
O17    O     0.06890   0.01376   0.27862   0.00000  Uiso   1.00
O18    O     0.02939   0.15203   0.87810   0.00000  Uiso   1.00
Zn19   Zn    0.50972   0.83182   0.82810   0.00000  Uiso   1.00
O20    O     0.33062   0.65276  -0.00561   0.00000  Uiso   1.00
O21    O     0.67542   0.87113   0.93846   0.00000  Uiso   1.00
O22    O     0.34427   0.36212   0.14555   0.00000  Uiso   1.00
O23    O     0.34451   0.02995   0.40402   0.00000  Uiso   1.00
O24    O     0.63782   1.02478   0.08891   0.00000  Uiso   1.00
O25    O     0.33631   0.86963   0.69640   0.00000  Uiso   1.00
C26    C     0.41177   0.49821   0.04123   0.00000  Uiso   1.00
C27    C     0.58423   0.97430   0.01056   0.00000  Uiso   1.00
C28    C     0.41305   0.97607   0.52171   0.00000  Uiso   1.00
K29    K     0.02589   0.74461   0.92552   0.00000  Uiso   1.00
O30    O     0.10747   0.52398   0.85107   0.00000  Uiso   1.00
O31    O     1.03104   0.69895   0.61096   0.00000  Uiso   1.00
C32    C     0.43645   0.53525   0.55586   0.00000  Uiso   1.00
C33    C     0.11837   0.58119   0.67956   0.00000  Uiso   1.00
C34    C     0.24220   0.50638   0.57569   0.00000  Uiso   1.00
O35    O     0.93146   0.98626   0.72164   0.00000  Uiso   1.00
O36    O     0.97214   0.84739   0.12225   0.00000  Uiso   1.00
H37    H     0.53595   0.33073   0.50366   0.00000  Uiso   1.00
H38    H     0.53873   0.52396   0.31621   0.00000  Uiso   1.00
H39    H     0.78505   0.62709   0.36259   0.00000  Uiso   1.00
H40    H     0.77952   0.43888   0.55214   0.00000  Uiso   1.00
H41    H     0.46040   0.47592   0.68373   0.00000  Uiso   1.00
H42    H     0.46353   0.66920   0.49633   0.00000  Uiso   1.00
H43    H     0.21994   0.56219   0.44725   0.00000  Uiso   1.00
H44    H     0.21388   0.37345   0.63639   0.00000  Uiso   1.00
loop_
_geom_bond_atom_site_label_1
_geom_bond_atom_site_label_2
_geom_bond_distance
_geom_bond_site_symmetry_2
_ccdc_geom_bond_type
Zn1    O2      1.996   1_554 S
Zn1    O3      2.045   .     S
Zn1    O7      1.995   .     S
Zn1    O22     1.967   .     S
Zn1    O23     1.966   .     S
Zn1    O24     1.938   1_545 S
O2     Zn1     1.996   1_556 S
O2     C8      1.414   .     S
O2     K11     2.614   1_556 S
O3     C9      1.424   1_554 S
O3     K11     2.861   1_455 S
O4     C8      1.229   .     D
O4     Zn19    1.967   .     S
O5     C10     1.228   1_565 D
O5     Zn19    1.966   .     S
O6     C9      1.220   .     D
O6     Zn19    1.938   1_545 S
O7     C10     1.418   .     S
O7     K11     2.668   .     S
C8     C26     1.372   1_556 S
C9     O3      1.424   1_556 S
C9     C27     1.392   1_546 S
C10    O5      1.228   1_545 D
C10    C28     1.380   1_545 S
K11    O2      2.614   1_554 S
K11    O3      2.861   1_655 S
K11    O12     2.413   .     S
K11    O17     2.359   1_655 S
K11    O18     2.348   1_654 S
K11    K29     4.102   1_654 S
K11    O30     2.460   1_654 S
O12    C15     1.398   .     S
O12    K29     2.460   1_654 S
O13    C15     1.221   1_455 D
C14    C16     1.533   .     S
C14    C32     1.536   .     S
C14    H37     1.112   .     S
C14    H38     1.113   .     S
C15    O13     1.221   1_655 D
C15    C16     1.505   .     S
C16    H39     1.104   .     S
C16    H40     1.113   .     S
O17    K11     2.359   1_455 S
O18    K11     2.348   1_456 S
Zn19   O20     1.996   1_556 S
Zn19   O21     2.045   .     S
Zn19   O25     1.995   .     S
Zn19   O6      1.938   1_565 S
O20    Zn19    1.996   1_554 S
O20    C26     1.414   .     S
O20    K29     2.614   1_554 S
O21    C27     1.424   1_556 S
O21    K29     2.860   1_655 S
O22    C26     1.229   .     D
O23    C28     1.228   1_545 D
O24    C27     1.220   .     D
O24    Zn1     1.938   1_565 S
O25    C28     1.418   .     S
O25    K29     2.668   .     S
C26    C8      1.372   1_554 S
C27    O21     1.424   1_554 S
C27    C9      1.392   1_564 S
C28    O23     1.228   1_565 D
C28    C10     1.380   1_565 S
K29    O20     2.614   1_556 S
K29    O21     2.860   1_455 S
K29    O30     2.413   .     S
K29    O35     2.359   1_455 S
K29    O36     2.348   1_456 S
K29    K11     4.102   1_456 S
K29    O12     2.460   1_456 S
O30    C33     1.398   .     S
O30    K11     2.460   1_456 S
O31    C33     1.221   1_655 D
C32    C34     1.533   .     S
C32    H41     1.113   .     S
C32    H42     1.112   .     S
C33    O31     1.221   1_455 D
C33    C34     1.505   .     S
C34    H43     1.113   .     S
C34    H44     1.105   .     S
O35    K29     2.359   1_655 S
O36    K29     2.348   1_654 S
