data_BOTLED_FSR
_audit_creation_date              2024-06-11
_audit_creation_method            'Materials Studio'
_symmetry_space_group_name_H-M    'P1'
_symmetry_Int_Tables_number       1
_symmetry_cell_setting            triclinic
loop_
_symmetry_equiv_pos_as_xyz
  x,y,z
_cell_length_a                    6.2924
_cell_length_b                    8.6702
_cell_length_c                    12.9527
_cell_angle_alpha                 105.4320
_cell_angle_beta                  90.4510
_cell_angle_gamma                 105.1180
loop_
_atom_site_label
_atom_site_type_symbol
_atom_site_fract_x
_atom_site_fract_y
_atom_site_fract_z
_atom_site_U_iso_or_equiv
_atom_site_adp_type
_atom_site_occupancy
C1     C     0.94560   0.55190   0.04580   0.00000  Uiso   1.00
C2     C     0.40520   0.42050   0.47950   0.00000  Uiso   1.00
C3     C     0.26570   0.10450   0.78050   0.00000  Uiso   1.00
Eu4    Eu    0.44137   0.47133   0.74264   0.00000  Uiso   1.00
Eu5    Eu    0.19080   0.83336   0.92483   0.00000  Uiso   1.00
O6     O     0.51250   0.76920   0.83950   0.00000  Uiso   1.00
O7     O     0.79750   0.66900   0.83870   0.00000  Uiso   1.00
O8     O     0.83970   0.93190   0.92450   0.00000  Uiso   1.00
O9     O     0.36060   0.37140   0.38060   0.00000  Uiso   1.00
O10    O     0.31400   0.35080   0.54640   0.00000  Uiso   1.00
O11    O     0.16510   0.96040   0.77700   0.00000  Uiso   1.00
O12    O     0.23370   0.18350   0.71680   0.00000  Uiso   1.00
O13    O     0.55750   0.34110   0.87360   0.00000  Uiso   1.00
O14    O     0.49420   0.11600   0.93350   0.00000  Uiso   1.00
C15    C     0.71690   0.79270   0.86870   0.00000  Uiso   1.00
C16    C     0.45650   0.19670   0.87110   0.00000  Uiso   1.00
O17    O     0.98020   0.70210   0.05540   0.00000  Uiso   1.00
O18    O     0.14070   0.60160   0.70520   0.00000  Uiso   1.00
H19    H     0.16500   0.71110   0.67490   0.00000  Uiso   1.00
H20    H     0.13320   0.64610   0.79080   0.00000  Uiso   1.00
O21    O     0.73220   0.32860   0.66170   0.00000  Uiso   1.00
H22    H     0.60980   0.27940   0.65990   0.00000  Uiso   1.00
H23    H     0.76920   0.32480   0.60230   0.00000  Uiso   1.00
O24    O     0.82670   0.47150   0.10320   0.00000  Uiso   1.00
C25    C     0.05440   0.44810   0.95420   0.00000  Uiso   1.00
C26    C     0.59480   0.57950   0.52050   0.00000  Uiso   1.00
C27    C     0.73430   0.89550   0.21950   0.00000  Uiso   1.00
Eu28   Eu    0.55863   0.52867   0.25736   0.00000  Uiso   1.00
Eu29   Eu    0.80920   0.16664   0.07517   0.00000  Uiso   1.00
O30    O     0.48750   0.23080   0.16050   0.00000  Uiso   1.00
O31    O     0.20250   0.33100   0.16130   0.00000  Uiso   1.00
O32    O     0.16030   0.06810   0.07550   0.00000  Uiso   1.00
O33    O     0.63940   0.62860   0.61940   0.00000  Uiso   1.00
O34    O     0.68600   0.64920   0.45360   0.00000  Uiso   1.00
O35    O     0.83490   0.03960   0.22300   0.00000  Uiso   1.00
O36    O     0.76630   0.81650   0.28320   0.00000  Uiso   1.00
O37    O     0.44250   0.65890   0.12640   0.00000  Uiso   1.00
O38    O     0.50580   0.88400   0.06650   0.00000  Uiso   1.00
C39    C     0.28310   0.20730   0.13130   0.00000  Uiso   1.00
C40    C     0.54350   0.80330   0.12890   0.00000  Uiso   1.00
O41    O     0.01980   0.29790   0.94460   0.00000  Uiso   1.00
O42    O     0.85930   0.39840   0.29480   0.00000  Uiso   1.00
H43    H     0.83500   0.28890   0.32510   0.00000  Uiso   1.00
H44    H     0.86680   0.35390   0.20920   0.00000  Uiso   1.00
O45    O     0.26780   0.67140   0.33830   0.00000  Uiso   1.00
H46    H     0.39020   0.72060   0.34010   0.00000  Uiso   1.00
H47    H     0.23080   0.67520   0.39770   0.00000  Uiso   1.00
O48    O     0.17330   0.52850   0.89680   0.00000  Uiso   1.00
loop_
_geom_bond_atom_site_label_1
_geom_bond_atom_site_label_2
_geom_bond_distance
_geom_bond_site_symmetry_2
_ccdc_geom_bond_type
C1     O17     1.235   .     S
C1     O24     1.269   .     S
C1     C25     1.566   1_654 S
C2     O9      1.242   .     S
C2     O10     1.245   .     S
C2     C26     1.532   .     S
C3     O11     1.233   1_545 S
C3     O12     1.249   .     S
C3     C16     1.561   .     S
Eu4    O6      2.471   .     S
Eu4    O7      2.515   .     S
Eu4    O18     2.546   .     S
Eu4    O21     2.550   .     S
Eu4    O48     2.653   .     S
Eu4    O33     2.503   .     S
Eu4    O12     2.428   .     S
Eu4    O13     2.473   .     S
Eu4    O10     2.513   .     S
Eu5    O6      2.434   .     S
Eu5    O11     2.473   .     S
Eu5    O14     2.659   1_565 S
Eu5    O17     2.487   1_456 S
Eu5    O7      2.583   1_455 S
Eu5    O8      2.568   1_455 S
Eu5    O32     2.466   1_566 S
Eu5    O38     2.559   1_556 S
Eu5    O48     2.543   .     S
O6     C15     1.286   .     S
O7     C15     1.274   .     S
O7     Eu5     2.583   1_655 S
O8     C15     1.271   .     S
O8     Eu29    2.466   1_566 S
O8     Eu5     2.568   1_655 S
O9     Eu28    2.503   .     S
O11    C3      1.233   1_565 S
O13    C16     1.239   .     S
O14    Eu5     2.659   1_545 S
O14    C16     1.258   .     S
O14    Eu29    2.559   1_556 S
O17    Eu5     2.487   1_654 S
O18    H19     1.096   .     S
O18    H20     1.078   .     S
O21    H22     0.774   .     S
O21    H23     0.800   .     S
O24    Eu28    2.653   .     S
O24    Eu29    2.543   .     S
C25    O41     1.235   .     S
C25    O48     1.269   .     S
C25    C1      1.566   1_456 S
C26    O33     1.242   .     S
C26    O34     1.245   .     S
C27    O35     1.233   1_565 S
C27    O36     1.249   .     S
C27    C40     1.561   .     S
Eu28   O30     2.471   .     S
Eu28   O31     2.515   .     S
Eu28   O42     2.546   .     S
Eu28   O45     2.550   .     S
Eu28   O36     2.428   .     S
Eu28   O37     2.473   .     S
Eu28   O34     2.513   .     S
Eu29   O30     2.434   .     S
Eu29   O35     2.473   .     S
Eu29   O38     2.659   1_545 S
Eu29   O41     2.487   1_654 S
Eu29   O31     2.583   1_655 S
Eu29   O32     2.568   1_655 S
Eu29   O8      2.466   1_544 S
Eu29   O14     2.559   1_554 S
O30    C39     1.286   .     S
O31    C39     1.274   .     S
O31    Eu29    2.583   1_455 S
O32    C39     1.271   .     S
O32    Eu5     2.466   1_544 S
O32    Eu29    2.568   1_455 S
O35    C27     1.233   1_545 S
O37    C40     1.239   .     S
O38    Eu29    2.659   1_565 S
O38    C40     1.258   .     S
O38    Eu5     2.559   1_554 S
O41    Eu29    2.487   1_456 S
O42    H43     1.096   .     S
O42    H44     1.078   .     S
O45    H46     0.774   .     S
O45    H47     0.800   .     S
