data_CAQLAL_FSR
_audit_creation_date              2024-06-11
_audit_creation_method            'Materials Studio'
_symmetry_space_group_name_H-M    'P1'
_symmetry_Int_Tables_number       1
_symmetry_cell_setting            triclinic
loop_
_symmetry_equiv_pos_as_xyz
  x,y,z
_cell_length_a                    7.6677
_cell_length_b                    12.6996
_cell_length_c                    12.7150
_cell_angle_alpha                 75.3650
_cell_angle_beta                  72.8500
_cell_angle_gamma                 74.0500
loop_
_atom_site_label
_atom_site_type_symbol
_atom_site_fract_x
_atom_site_fract_y
_atom_site_fract_z
_atom_site_U_iso_or_equiv
_atom_site_adp_type
_atom_site_occupancy
Tb1    Tb    0.65404   0.11575   0.45429   0.00000  Uiso   1.00
S2     S     0.57545   0.40046   0.31220   0.00000  Uiso   1.00
P3     P     0.25815   0.16913   0.59551   0.00000  Uiso   1.00
P4     P     0.84315   0.96648   0.68770   0.00000  Uiso   1.00
O5     O     0.73890   0.87190   0.72540   0.00000  Uiso   1.00
O6     O     0.74220   0.06610   0.61700   0.00000  Uiso   1.00
O7     O     0.04690   0.92960   0.63530   0.00000  Uiso   1.00
O8     O     0.34040   0.07310   0.52900   0.00000  Uiso   1.00
O9     O     0.41110   0.23500   0.56420   0.00000  Uiso   1.00
O10    O     0.18510   0.12800   0.71840   0.00000  Uiso   1.00
O11    O     0.69300   0.29630   0.35630   0.00000  Uiso   1.00
O12    O     0.61600   0.10470   0.27740   0.00000  Uiso   1.00
H13    H     0.66366   0.03716   0.26365   0.00000  Uiso   1.00
O14    O     0.38700   0.39070   0.32620   0.00000  Uiso   1.00
O15    O     0.58710   0.49380   0.35290   0.00000  Uiso   1.00
O16    O     0.91120   0.16130   0.98750   0.00000  Uiso   1.00
O17    O     0.01390   0.28190   0.83580   0.00000  Uiso   1.00
H18    H     0.07759   0.22489   0.81333   0.00000  Uiso   1.00
O19    O     0.66670   0.74930   0.97240   0.00000  Uiso   1.00
O20    O     0.82840   0.67480   0.82240   0.00000  Uiso   1.00
H21    H     0.81502   0.74018   0.79060   0.00000  Uiso   1.00
N22    N     0.07840   0.38030   0.50240   0.00000  Uiso   1.00
H23    H     0.20340   0.38418   0.45419   0.00000  Uiso   1.00
N24    N     0.66660   0.97940   0.90960   0.00000  Uiso   1.00
H25    H     0.66296   0.90241   0.91150   0.00000  Uiso   1.00
C26    C     0.66750   0.53370   0.10620   0.00000  Uiso   1.00
H27    H     0.61385   0.59354   0.14334   0.00000  Uiso   1.00
C28    C     0.74400   0.55210   0.99080   0.00000  Uiso   1.00
C29    C     0.82580   0.46280   0.93670   0.00000  Uiso   1.00
H30    H     0.87769   0.47528   0.85988   0.00000  Uiso   1.00
C31    C     0.83120   0.35440   0.99620   0.00000  Uiso   1.00
C32    C     0.75240   0.33560   0.11090   0.00000  Uiso   1.00
H33    H     0.75367   0.26313   0.15065   0.00000  Uiso   1.00
C34    C     0.67220   0.42460   0.16550   0.00000  Uiso   1.00
C35    C     0.74140   0.66920   0.92740   0.00000  Uiso   1.00
C36    C     0.91930   0.25590   0.94000   0.00000  Uiso   1.00
C37    C     0.05020   0.43360   0.60010   0.00000  Uiso   1.00
H38    H     0.14451   0.39382   0.64126   0.00000  Uiso   1.00
H39    H     0.92866   0.42821   0.64997   0.00000  Uiso   1.00
C40    C     0.93760   0.44510   0.43660   0.00000  Uiso   1.00
H41    H     0.81309   0.43988   0.48216   0.00000  Uiso   1.00
H42    H     0.95885   0.41304   0.37109   0.00000  Uiso   1.00
C43    C     0.06520   0.25970   0.53690   0.00000  Uiso   1.00
H44    H     0.06283   0.23346   0.47214   0.00000  Uiso   1.00
H45    H     0.94834   0.25407   0.59218   0.00000  Uiso   1.00
C46    C     0.48710   0.05240   0.88740   0.00000  Uiso   1.00
H47    H     0.47809   0.04923   0.81380   0.00000  Uiso   1.00
H48    H     0.48355   0.12899   0.88873   0.00000  Uiso   1.00
C49    C     0.67690   0.98640   0.02370   0.00000  Uiso   1.00
H50    H     0.67414   0.06272   0.02575   0.00000  Uiso   1.00
H51    H     0.79354   0.94006   0.03925   0.00000  Uiso   1.00
C52    C     0.83320   0.00710   0.81900   0.00000  Uiso   1.00
H53    H     0.94646   0.96855   0.84353   0.00000  Uiso   1.00
H54    H     0.82674   0.08654   0.80541   0.00000  Uiso   1.00
H55    H     0.51000   0.09900   0.27000   0.00000  Uiso   1.00
Tb56   Tb    0.34596   0.88425   0.54571   0.00000  Uiso   1.00
S57    S     0.42455   0.59954   0.68780   0.00000  Uiso   1.00
P58    P     0.74185   0.83087   0.40449   0.00000  Uiso   1.00
P59    P     0.15685   0.03352   0.31230   0.00000  Uiso   1.00
O60    O     0.26110   0.12810   0.27460   0.00000  Uiso   1.00
O61    O     0.25780   0.93390   0.38300   0.00000  Uiso   1.00
O62    O     0.95310   0.07040   0.36470   0.00000  Uiso   1.00
O63    O     0.65960   0.92690   0.47100   0.00000  Uiso   1.00
O64    O     0.58890   0.76500   0.43580   0.00000  Uiso   1.00
O65    O     0.81490   0.87200   0.28160   0.00000  Uiso   1.00
O66    O     0.30700   0.70370   0.64370   0.00000  Uiso   1.00
O67    O     0.38400   0.89530   0.72260   0.00000  Uiso   1.00
H68    H     0.33634   0.96284   0.73635   0.00000  Uiso   1.00
O69    O     0.61300   0.60930   0.67380   0.00000  Uiso   1.00
O70    O     0.41290   0.50620   0.64710   0.00000  Uiso   1.00
O71    O     0.08880   0.83870   0.01250   0.00000  Uiso   1.00
O72    O     0.98610   0.71810   0.16420   0.00000  Uiso   1.00
H73    H     0.92241   0.77511   0.18667   0.00000  Uiso   1.00
O74    O     0.33330   0.25070   0.02760   0.00000  Uiso   1.00
O75    O     0.17160   0.32520   0.17760   0.00000  Uiso   1.00
H76    H     0.18497   0.25982   0.20940   0.00000  Uiso   1.00
N77    N     0.92160   0.61970   0.49760   0.00000  Uiso   1.00
H78    H     0.79660   0.61582   0.54581   0.00000  Uiso   1.00
N79    N     0.33340   0.02060   0.09040   0.00000  Uiso   1.00
H80    H     0.33704   0.09759   0.08850   0.00000  Uiso   1.00
C81    C     0.33250   0.46630   0.89380   0.00000  Uiso   1.00
H82    H     0.38615   0.40646   0.85666   0.00000  Uiso   1.00
C83    C     0.25600   0.44790   0.00920   0.00000  Uiso   1.00
C84    C     0.17420   0.53720   0.06330   0.00000  Uiso   1.00
H85    H     0.12231   0.52472   0.14012   0.00000  Uiso   1.00
C86    C     0.16880   0.64560   0.00380   0.00000  Uiso   1.00
C87    C     0.24760   0.66440   0.88910   0.00000  Uiso   1.00
H88    H     0.24633   0.73687   0.84935   0.00000  Uiso   1.00
C89    C     0.32780   0.57540   0.83450   0.00000  Uiso   1.00
C90    C     0.25860   0.33080   0.07260   0.00000  Uiso   1.00
C91    C     0.08070   0.74410   0.06000   0.00000  Uiso   1.00
C92    C     0.94980   0.56640   0.39990   0.00000  Uiso   1.00
H93    H     0.85549   0.60618   0.35874   0.00000  Uiso   1.00
H94    H     0.07134   0.57179   0.35003   0.00000  Uiso   1.00
C95    C     0.06240   0.55490   0.56340   0.00000  Uiso   1.00
H96    H     0.18691   0.56012   0.51784   0.00000  Uiso   1.00
H97    H     0.04115   0.58696   0.62891   0.00000  Uiso   1.00
C98    C     0.93480   0.74030   0.46310   0.00000  Uiso   1.00
H99    H     0.93717   0.76654   0.52786   0.00000  Uiso   1.00
H100   H     0.05166   0.74593   0.40782   0.00000  Uiso   1.00
C101   C     0.51290   0.94760   0.11260   0.00000  Uiso   1.00
H102   H     0.52191   0.95077   0.18620   0.00000  Uiso   1.00
H103   H     0.51645   0.87101   0.11127   0.00000  Uiso   1.00
C104   C     0.32310   0.01360   0.97630   0.00000  Uiso   1.00
H105   H     0.32586   0.93728   0.97425   0.00000  Uiso   1.00
H106   H     0.20646   0.05994   0.96075   0.00000  Uiso   1.00
C107   C     0.16680   0.99290   0.18100   0.00000  Uiso   1.00
H108   H     0.05354   0.03145   0.15647   0.00000  Uiso   1.00
H109   H     0.17326   0.91346   0.19459   0.00000  Uiso   1.00
H110   H     0.49000   0.90100   0.73000   0.00000  Uiso   1.00
loop_
_geom_bond_atom_site_label_1
_geom_bond_atom_site_label_2
_geom_bond_distance
_geom_bond_site_symmetry_2
_ccdc_geom_bond_type
Tb1    O6      2.251   .     S
Tb1    O8      2.467   .     S
Tb1    O9      2.388   .     S
Tb1    O11     2.369   .     S
Tb1    O12     2.394   .     S
Tb1    O62     2.225   .     S
Tb1    O63     2.343   1_545 S
S2     O11     1.464   .     S
S2     O14     1.439   .     S
S2     O15     1.441   .     S
S2     C34     1.773   .     S
P3     O8      1.544   .     S
P3     O10     1.503   .     S
P3     C43     1.830   .     S
P3     O9      1.526   .     S
P4     O5      1.524   .     S
P4     O6      1.518   1_565 S
P4     O7      1.499   1_655 S
P4     C52     1.843   1_565 S
O6     P4      1.518   1_545 S
O7     P4      1.499   1_455 S
O7     Tb56    2.225   .     S
O8     Tb56    2.343   1_545 S
O12    H13     0.875   .     S
O12    H55     0.869   .     S
O16    C36     1.210   .     S
O17    H18     0.820   .     S
O17    C36     1.317   1_455 S
O19    C35     1.213   .     S
O20    H21     0.819   .     S
O20    C35     1.298   .     S
N22    H23     0.980   .     S
N22    C37     1.495   .     S
N22    C40     1.496   1_455 S
N22    C43     1.506   .     S
N24    H25     0.980   .     S
N24    C46     1.493   1_565 S
N24    C49     1.502   1_556 S
N24    C52     1.502   1_565 S
C26    H27     0.930   .     S
C26    C28     1.395   1_554 S
C26    C34     1.396   .     S
C28    C26     1.395   1_556 S
C28    C29     1.379   .     S
C28    C35     1.500   .     S
C29    H30     0.930   .     S
C29    C31     1.389   .     S
C31    C32     1.390   1_556 S
C31    C36     1.495   .     S
C32    C31     1.390   1_554 S
C32    H33     0.930   .     S
C32    C34     1.379   .     S
C36    O17     1.317   1_655 S
C37    H38     0.970   .     S
C37    H39     0.969   1_455 S
C37    C95     1.513   .     S
H39    C37     0.969   1_655 S
C40    N22     1.496   1_655 S
C40    H41     0.970   .     S
C40    H42     0.970   .     S
C40    C92     1.513   .     S
C43    H44     0.970   .     S
C43    H45     0.970   1_455 S
H45    C43     0.970   1_655 S
C46    N24     1.493   1_545 S
C46    H47     0.970   .     S
C46    H48     0.970   .     S
C46    C104    1.524   .     S
C49    N24     1.502   1_554 S
C49    H50     0.970   1_565 S
C49    H51     0.970   .     S
C49    C101    1.524   .     S
H50    C49     0.970   1_545 S
C52    P4      1.843   1_545 S
C52    H53     0.970   1_545 S
C52    H54     0.969   .     S
C52    N24     1.502   1_545 S
H53    C52     0.970   1_565 S
Tb56   O61     2.251   .     S
Tb56   O63     2.467   .     S
Tb56   O64     2.388   .     S
Tb56   O66     2.369   .     S
Tb56   O67     2.394   .     S
Tb56   O8      2.343   1_565 S
S57    O66     1.464   .     S
S57    O69     1.439   .     S
S57    O70     1.441   .     S
S57    C89     1.773   .     S
P58    O63     1.544   .     S
P58    O65     1.503   .     S
P58    C98     1.830   .     S
P58    O64     1.526   .     S
P59    O60     1.524   .     S
P59    O61     1.518   1_545 S
P59    O62     1.499   1_455 S
P59    C107    1.843   1_545 S
O61    P59     1.518   1_565 S
O62    P59     1.499   1_655 S
O63    Tb1     2.343   1_565 S
O67    H68     0.875   .     S
O67    H110    0.869   .     S
O71    C91     1.210   .     S
O72    H73     0.820   .     S
O72    C91     1.317   1_655 S
O74    C90     1.213   .     S
O75    H76     0.819   .     S
O75    C90     1.298   .     S
N77    H78     0.980   .     S
N77    C92     1.495   .     S
N77    C95     1.496   1_655 S
N77    C98     1.506   .     S
N79    H80     0.980   .     S
N79    C101    1.493   1_545 S
N79    C104    1.502   1_554 S
N79    C107    1.502   1_545 S
C81    H82     0.930   .     S
C81    C83     1.395   1_556 S
C81    C89     1.396   .     S
C83    C81     1.395   1_554 S
C83    C84     1.379   .     S
C83    C90     1.500   .     S
C84    H85     0.930   .     S
C84    C86     1.389   .     S
C86    C87     1.390   1_554 S
C86    C91     1.495   .     S
C87    C86     1.390   1_556 S
C87    H88     0.930   .     S
C87    C89     1.379   .     S
C91    O72     1.317   1_455 S
C92    H93     0.970   .     S
C92    H94     0.969   1_655 S
H94    C92     0.969   1_455 S
C95    N77     1.496   1_455 S
C95    H96     0.970   .     S
C95    H97     0.970   .     S
C98    H99     0.970   .     S
C98    H100    0.970   1_655 S
H100   C98     0.970   1_455 S
C101   N79     1.493   1_565 S
C101   H102    0.970   .     S
C101   H103    0.970   .     S
C104   N79     1.502   1_556 S
C104   H105    0.970   1_545 S
C104   H106    0.970   .     S
H105   C104    0.970   1_565 S
C107   P59     1.843   1_565 S
C107   H108    0.970   1_565 S
C107   H109    0.969   .     S
C107   N79     1.502   1_565 S
H108   C107    0.970   1_545 S
