data_CAVSUP_directopt
_audit_creation_date              2024-06-11
_audit_creation_method            'Materials Studio'
_symmetry_space_group_name_H-M    'P1'
_symmetry_Int_Tables_number       1
_symmetry_cell_setting            triclinic
loop_
_symmetry_equiv_pos_as_xyz
  x,y,z
_cell_length_a                    13.3444
_cell_length_b                    18.7820
_cell_length_c                    5.8490
_cell_angle_alpha                 90.0000
_cell_angle_beta                  97.7110
_cell_angle_gamma                 90.0000
loop_
_atom_site_label
_atom_site_type_symbol
_atom_site_fract_x
_atom_site_fract_y
_atom_site_fract_z
_atom_site_U_iso_or_equiv
_atom_site_adp_type
_atom_site_occupancy
La1    La    0.57091   0.24009   0.29017   0.02740  Uiso   1.00
P2     P     0.41578   0.09606   0.11634   0.02300  Uiso   1.00
P3     P     0.67320   0.13995   0.81469   0.02300  Uiso   1.00
O4     O     0.44732   0.07048   0.87216   0.04100  Uiso   1.00
O5     O     0.41402   0.18861   0.09835   0.04100  Uiso   1.00
O6     O     0.51004   0.07294   0.30447   0.04100  Uiso   1.00
O7     O     0.75635   0.17169   0.68335   0.04100  Uiso   1.00
O8     O     0.55881   0.16747   0.65160   0.04100  Uiso   1.00
O9     O     0.70134   0.17732   0.09703   0.04100  Uiso   1.00
C10    C     0.28957   0.05774   0.15315   0.04100  Uiso   1.00
C11    C     0.69211   0.04083   0.85602   0.04100  Uiso   1.00
N12    N     0.29068   0.98280   0.23542   0.04100  Uiso   1.00
C13    C     0.18462   0.96321   0.25964   0.04100  Uiso   1.00
C14    C     0.16015   0.98295   0.50202   0.04100  Uiso   1.00
C15    C     0.05679   0.01902   0.49848   0.04100  Uiso   1.00
P16    P     0.58478   0.89058   0.68775   0.02300  Uiso   1.00
P17    P     0.34481   0.83932   0.18652   0.02300  Uiso   1.00
O18    O     0.55670   0.88444   0.94630   0.04100  Uiso   1.00
O19    O     0.56632   0.80615   0.56588   0.04100  Uiso   1.00
O20    O     0.49893   0.94211   0.55516   0.04100  Uiso   1.00
O21    O     0.24992   0.80053   0.06460   0.04100  Uiso   1.00
O22    O     0.32968   0.83362   0.48323   0.04100  Uiso   1.00
O23    O     0.44786   0.78951   0.11386   0.04100  Uiso   1.00
C24    C     0.71736   0.92370   0.69622   0.04100  Uiso   1.00
C25    C     0.33519   0.93382   0.07731   0.04100  Uiso   1.00
N26    N     0.72748   0.00191   0.66145   0.04100  Uiso   1.00
C27    C     0.83716   0.01577   0.65720   0.04100  Uiso   1.00
C28    C     0.86589   0.00368   0.41395   0.04100  Uiso   1.00
C29    C     0.96940   0.96815   0.41541   0.04100  Uiso   1.00
H30    H     0.83796   0.43403   0.39063   0.00000  Uiso   1.00
H31    H     0.78135   0.51964   0.41144   0.00000  Uiso   1.00
H32    H     0.94700   0.56695   0.61411   0.00000  Uiso   1.00
H33    H     0.95030   0.53704   0.32331   0.00000  Uiso   1.00
H34    H     0.13522   0.55550   0.67822   0.00000  Uiso   1.00
H35    H     0.19051   0.46845   0.68627   0.00000  Uiso   1.00
H36    H     0.02444   0.45072   0.76369   0.00000  Uiso   1.00
H37    H     0.02598   0.41964   0.47460   0.00000  Uiso   1.00
H38    H     0.83013   0.40552   0.76343   0.00000  Uiso   1.00
H39    H     0.86970   0.48844   0.87822   0.00000  Uiso   1.00
H40    H     0.11528   0.48234   0.21287   0.00000  Uiso   1.00
H41    H     0.14086   0.57075   0.29095   0.00000  Uiso   1.00
H42    H     0.25063   0.39383   0.44080   0.00000  Uiso   1.00
H43    H     0.24027   0.40662   0.13561   0.00000  Uiso   1.00
H44    H     0.38058   0.51958   0.10371   0.00000  Uiso   1.00
H45    H     0.25370   0.53359   0.98672   0.00000  Uiso   1.00
H46    H     0.58652   0.45042   0.93563   0.00000  Uiso   1.00
H47    H     0.70792   0.43487   0.09786   0.00000  Uiso   1.00
H48    H     0.75932   0.56347   0.01543   0.00000  Uiso   1.00
H49    H     0.74204   0.59275   0.72111   0.00000  Uiso   1.00
La50   La    0.42909   0.74009   0.70983   0.02740  Uiso   1.00
P51    P     0.58422   0.59606   0.88366   0.02300  Uiso   1.00
P52    P     0.32680   0.63995   0.18531   0.02300  Uiso   1.00
O53    O     0.55268   0.57048   0.12784   0.04100  Uiso   1.00
O54    O     0.58598   0.68861   0.90165   0.04100  Uiso   1.00
O55    O     0.48996   0.57294   0.69553   0.04100  Uiso   1.00
O56    O     0.24365   0.67169   0.31665   0.04100  Uiso   1.00
O57    O     0.44119   0.66747   0.34840   0.04100  Uiso   1.00
O58    O     0.29866   0.67732   0.90297   0.04100  Uiso   1.00
C59    C     0.71043   0.55774   0.84685   0.04100  Uiso   1.00
C60    C     0.30789   0.54083   0.14398   0.04100  Uiso   1.00
N61    N     0.70932   0.48280   0.76458   0.04100  Uiso   1.00
C62    C     0.81538   0.46321   0.74036   0.04100  Uiso   1.00
C63    C     0.83985   0.48295   0.49798   0.04100  Uiso   1.00
C64    C     0.94321   0.51902   0.50152   0.04100  Uiso   1.00
P65    P     0.41522   0.39058   0.31225   0.02300  Uiso   1.00
P66    P     0.65519   0.33932   0.81348   0.02300  Uiso   1.00
O67    O     0.44330   0.38444   0.05370   0.04100  Uiso   1.00
O68    O     0.43368   0.30615   0.43412   0.04100  Uiso   1.00
O69    O     0.50107   0.44211   0.44484   0.04100  Uiso   1.00
O70    O     0.75008   0.30053   0.93540   0.04100  Uiso   1.00
O71    O     0.67032   0.33362   0.51677   0.04100  Uiso   1.00
O72    O     0.55214   0.28951   0.88614   0.04100  Uiso   1.00
C73    C     0.28264   0.42370   0.30378   0.04100  Uiso   1.00
C74    C     0.66481   0.43382   0.92269   0.04100  Uiso   1.00
N75    N     0.27252   0.50191   0.33855   0.04100  Uiso   1.00
C76    C     0.16284   0.51577   0.34280   0.04100  Uiso   1.00
C77    C     0.13411   0.50368   0.58605   0.04100  Uiso   1.00
C78    C     0.03060   0.46815   0.58459   0.04100  Uiso   1.00
H79    H     0.16204   0.93403   0.60937   0.00000  Uiso   1.00
H80    H     0.21865   0.01964   0.58856   0.00000  Uiso   1.00
H81    H     0.05300   0.06695   0.38589   0.00000  Uiso   1.00
H82    H     0.04970   0.03704   0.67669   0.00000  Uiso   1.00
H83    H     0.86478   0.05550   0.32178   0.00000  Uiso   1.00
H84    H     0.80949   0.96845   0.31373   0.00000  Uiso   1.00
H85    H     0.97556   0.95072   0.23631   0.00000  Uiso   1.00
H86    H     0.97402   0.91964   0.52540   0.00000  Uiso   1.00
H87    H     0.16987   0.90552   0.23657   0.00000  Uiso   1.00
H88    H     0.13030   0.98844   0.12178   0.00000  Uiso   1.00
H89    H     0.88472   0.98234   0.78713   0.00000  Uiso   1.00
H90    H     0.85914   0.07075   0.70905   0.00000  Uiso   1.00
H91    H     0.74937   0.89383   0.55920   0.00000  Uiso   1.00
H92    H     0.75973   0.90662   0.86439   0.00000  Uiso   1.00
H93    H     0.61942   0.01958   0.89629   0.00000  Uiso   1.00
H94    H     0.74630   0.03359   0.01328   0.00000  Uiso   1.00
H95    H     0.41348   0.95042   0.06437   0.00000  Uiso   1.00
H96    H     0.29208   0.93487   0.90214   0.00000  Uiso   1.00
H97    H     0.24068   0.06347   0.98457   0.00000  Uiso   1.00
H98    H     0.25796   0.09275   0.27889   0.00000  Uiso   1.00
loop_
_geom_bond_atom_site_label_1
_geom_bond_atom_site_label_2
_geom_bond_distance
_geom_bond_site_symmetry_2
_ccdc_geom_bond_type
La1    O5      2.438   .     S
La1    O8      2.539   .     S
La1    O9      2.495   .     S
La1    O68     2.453   .     S
La1    O71     2.476   .     S
La1    O72     2.520   1_554 S
P2     O5      1.741   .     S
P2     O6      1.616   .     S
P2     C10     1.870   .     S
P2     O4      1.615   1_554 D
P3     O7      1.551   .     D
P3     O8      1.765   .     S
P3     C11     1.890   .     S
P3     O9      1.787   1_556 S
O4     P2      1.615   1_556 D
O9     P3      1.787   1_554 S
C10    N12     1.487   1_545 S
C10    H97     1.112   1_554 S
C10    H98     1.111   .     S
C11    N26     1.482   .     S
C11    H93     1.103   .     S
C11    H94     1.100   1_556 S
N12    C25     1.484   .     S
N12    C10     1.487   1_565 S
N12    C13     1.487   .     S
C13    C14     1.542   .     S
C13    H87     1.106   .     S
C13    H88     1.115   .     S
C14    C15     1.534   1_565 S
C14    H79     1.111   .     S
C14    H80     1.111   1_565 S
C15    C14     1.534   1_545 S
C15    C29     1.535   1_445 S
C15    H81     1.112   .     S
C15    H82     1.112   .     S
P16    O19     1.742   .     S
P16    O20     1.616   .     S
P16    C24     1.870   .     S
P16    O18     1.610   .     D
P17    O21     1.549   .     D
P17    O22     1.777   .     S
P17    C25     1.885   .     S
P17    O23     1.762   .     S
O19    La50    2.453   .     S
O22    La50    2.476   .     S
O23    La50    2.520   1_554 S
C24    N26     1.492   1_565 S
C24    H91     1.110   .     S
C24    H92     1.114   .     S
C25    H95     1.103   .     S
C25    H96     1.106   1_554 S
N26    C24     1.492   1_545 S
N26    C27     1.490   .     S
C27    C28     1.539   .     S
C27    H89     1.116   1_545 S
C27    H90     1.105   .     S
C28    C29     1.533   1_545 S
C28    H83     1.112   .     S
C28    H84     1.109   1_545 S
C29    C28     1.533   1_565 S
C29    C15     1.535   1_665 S
C29    H85     1.111   .     S
C29    H86     1.112   .     S
H30    C63     1.111   .     S
H31    C63     1.111   .     S
H32    C64     1.112   .     S
H33    C64     1.112   .     S
H34    C77     1.112   .     S
H35    C77     1.109   .     S
H36    C78     1.111   .     S
H37    C78     1.112   .     S
H38    C62     1.106   .     S
H39    C62     1.115   .     S
H40    C76     1.116   .     S
H41    C76     1.105   .     S
H42    C73     1.110   .     S
H43    C73     1.114   .     S
H44    C60     1.103   .     S
H45    C60     1.100   1_556 S
H46    C74     1.103   .     S
H47    C74     1.106   1_554 S
H48    C59     1.112   1_554 S
H49    C59     1.111   .     S
La50   O54     2.438   .     S
La50   O57     2.539   .     S
La50   O58     2.495   .     S
La50   O23     2.520   1_556 S
P51    O54     1.741   .     S
P51    O55     1.616   .     S
P51    C59     1.870   .     S
P51    O53     1.615   1_556 D
P52    O56     1.551   .     D
P52    O57     1.765   .     S
P52    C60     1.890   .     S
P52    O58     1.787   1_554 S
O53    P51     1.615   1_554 D
O58    P52     1.787   1_556 S
C59    N61     1.487   .     S
C59    H48     1.112   1_556 S
C60    N75     1.482   .     S
C60    H45     1.100   1_554 S
N61    C74     1.484   .     S
N61    C62     1.487   .     S
C62    C63     1.542   .     S
C63    C64     1.534   .     S
C64    C78     1.535   1_655 S
P65    O68     1.742   .     S
P65    O69     1.616   .     S
P65    C73     1.870   .     S
P65    O67     1.610   .     D
P66    O70     1.549   .     D
P66    O71     1.777   .     S
P66    C74     1.885   .     S
P66    O72     1.762   .     S
O72    La1     2.520   1_556 S
C73    N75     1.492   .     S
C74    H47     1.106   1_556 S
N75    C76     1.490   .     S
C76    C77     1.539   .     S
C77    C78     1.533   .     S
C78    C64     1.535   1_455 S
H80    C14     1.111   1_545 S
H84    C28     1.109   1_565 S
H89    C27     1.116   1_565 S
H94    C11     1.100   1_554 S
H96    C25     1.106   1_556 S
H97    C10     1.112   1_556 S
