data_CENXUS_FSR
_audit_creation_date              2024-06-11
_audit_creation_method            'Materials Studio'
_symmetry_space_group_name_H-M    'P1'
_symmetry_Int_Tables_number       1
_symmetry_cell_setting            triclinic
loop_
_symmetry_equiv_pos_as_xyz
  x,y,z
_cell_length_a                    9.1899
_cell_length_b                    11.1150
_cell_length_c                    19.4654
_cell_angle_alpha                 100.3290
_cell_angle_beta                  94.0530
_cell_angle_gamma                 113.6010
loop_
_atom_site_label
_atom_site_type_symbol
_atom_site_fract_x
_atom_site_fract_y
_atom_site_fract_z
_atom_site_U_iso_or_equiv
_atom_site_adp_type
_atom_site_occupancy
C1     C     0.09830   0.32516   0.43492   0.00000  Uiso   1.00
H2     H     0.17980   0.37665   0.47465   0.00000  Uiso   1.00
C3     C     0.90180   0.15820   0.35922   0.00000  Uiso   1.00
H4     H     0.82180   0.07054   0.33756   0.00000  Uiso   1.00
C5     C     0.05513   0.37043   0.38011   0.00000  Uiso   1.00
H6     H     0.10271   0.46089   0.37496   0.00000  Uiso   1.00
C7     C     0.66587   0.15776   0.06719   0.00000  Uiso   1.00
H8     H     0.67447   0.07418   0.05970   0.00000  Uiso   1.00
C9     C     0.60410   0.20258   0.01709   0.00000  Uiso   1.00
H10    H     0.56190   0.15743   0.96902   0.00000  Uiso   1.00
C11    C     0.68187   0.35205   0.11835   0.00000  Uiso   1.00
H12    H     0.70261   0.43147   0.15292   0.00000  Uiso   1.00
C13    C     0.81940   0.19080   0.61439   0.00000  Uiso   1.00
H14    H     0.77840   0.25460   0.63149   0.00000  Uiso   1.00
C15    C     0.88020   0.19289   0.55257   0.00000  Uiso   1.00
H16    H     0.88080   0.25803   0.52684   0.00000  Uiso   1.00
C17    C     0.94300   0.09844   0.52600   0.00000  Uiso   1.00
C18    C     0.00150   0.09388   0.46162   0.00000  Uiso   1.00
C19    C     0.05840   0.99879   0.43407   0.00000  Uiso   1.00
C20    C     0.12330   0.99717   0.36965   0.00000  Uiso   1.00
H21    H     0.12480   0.06056   0.34250   0.00000  Uiso   1.00
C22    C     0.67073   0.37514   0.34652   0.00000  Uiso   1.00
H23    H     0.77024   0.41167   0.37755   0.00000  Uiso   1.00
C24    C     0.41770   0.31950   0.30613   0.00000  Uiso   1.00
H25    H     0.30940   0.30890   0.30237   0.00000  Uiso   1.00
C26    C     0.48880   0.27573   0.25485   0.00000  Uiso   1.00
H27    H     0.43680   0.22769   0.20807   0.00000  Uiso   1.00
C28    C     0.35272   0.69766   0.20534   0.00000  Uiso   1.00
H29    H     0.42274   0.66027   0.22029   0.00000  Uiso   1.00
C30    C     0.18694   0.62746   0.20028   0.00000  Uiso   1.00
C31    C     0.08601   0.68178   0.17647   0.00000  Uiso   1.00
H32    H     0.97282   0.63314   0.17219   0.00000  Uiso   1.00
C33    C     0.14888   0.80678   0.15878   0.00000  Uiso   1.00
C34    C     0.31433   0.87859   0.16504   0.00000  Uiso   1.00
H35    H     0.35823   0.96439   0.15360   0.00000  Uiso   1.00
C36    C     0.41475   0.82305   0.18827   0.00000  Uiso   1.00
C37    C     0.04074   0.87094   0.14011   0.00000  Uiso   1.00
C38    C     0.51795   0.44270   0.43372   0.00000  Uiso   1.00
C39    C     0.49306   0.36738   0.48581   0.00000  Uiso   1.00
C40    C     0.47990   0.23231   0.47316   0.00000  Uiso   1.00
H41    H     0.49340   0.19143   0.42831   0.00000  Uiso   1.00
C42    C     0.44820   0.16225   0.52470   0.00000  Uiso   1.00
H43    H     0.43830   0.07221   0.51522   0.00000  Uiso   1.00
C44    C     0.52581   0.57306   0.44545   0.00000  Uiso   1.00
C45    C     0.55680   0.65027   0.39243   0.00000  Uiso   1.00
H46    H     0.56780   0.61151   0.34658   0.00000  Uiso   1.00
C47    C     0.57040   0.77900   0.40746   0.00000  Uiso   1.00
H48    H     0.59260   0.83010   0.37218   0.00000  Uiso   1.00
C49    C     0.28350   0.27025   0.04384   0.00000  Uiso   1.00
H50    H     0.32010   0.20872   0.05844   0.00000  Uiso   1.00
C51    C     0.39409   0.38578   0.02266   0.00000  Uiso   1.00
C52    C     0.55621   0.41338   0.02262   0.00000  Uiso   1.00
C53    C     0.66398   0.52336   0.99998   0.00000  Uiso   1.00
C54    C     0.82870   0.54938   0.99802   0.00000  Uiso   1.00
H55    H     0.86880   0.48909   0.01165   0.00000  Uiso   1.00
C56    C     0.92880   0.65950   0.97685   0.00000  Uiso   1.00
H57    H     0.03790   0.67478   0.97546   0.00000  Uiso   1.00
C58    C     0.87280   0.75200   0.95678   0.00000  Uiso   1.00
H59    H     0.94530   0.83007   0.94368   0.00000  Uiso   1.00
C60    C     0.11900   0.49456   0.22245   0.00000  Uiso   1.00
C61    C     0.81700   0.09410   0.65331   0.00000  Uiso   1.00
H62    H     0.77300   0.09300   0.69605   0.00000  Uiso   1.00
Co63   Co    0.81924   0.25664   0.23132   0.00000  Uiso   1.00
N64    N     0.93164   0.26514   0.33302   0.00000  Uiso   1.00
N65    N     0.99991   0.18926   0.42116   0.00000  Uiso   1.00
N66    N     0.71418   0.25180   0.13056   0.00000  Uiso   1.00
N67    N     0.61553   0.32723   0.05040   0.00000  Uiso   1.00
N68    N     0.64782   0.31103   0.28039   0.00000  Uiso   1.00
N69    N     0.53530   0.38269   0.36497   0.00000  Uiso   1.00
O70    O     0.69623   0.86682   0.25059   0.00000  Uiso   1.00
O71    O     0.64926   0.05542   0.22483   0.00000  Uiso   1.00
O72    O     0.67340   0.89409   0.12960   0.00000  Uiso   1.00
O73    O     0.88785   0.79090   0.13663   0.00000  Uiso   1.00
H74    H     0.83190   0.83380   0.13190   0.00000  Uiso   1.00
O75    O     0.09015   0.98488   0.13083   0.00000  Uiso   1.00
O76    O     0.20653   0.43462   0.22631   0.00000  Uiso   1.00
O77    O     0.97532   0.45579   0.23554   0.00000  Uiso   1.00
O78    O     0.98658   0.18440   0.19342   0.00000  Uiso   1.00
H79    H     0.08580   0.24211   0.19640   0.00000  Uiso   1.00
H80    H     0.98030   0.11110   0.16582   0.00000  Uiso   1.00
S81    S     0.62629   0.91624   0.19941   0.00000  Uiso   1.00
C82    C     0.90170   0.67484   0.56508   0.00000  Uiso   1.00
H83    H     0.82020   0.62335   0.52535   0.00000  Uiso   1.00
C84    C     0.09820   0.84180   0.64078   0.00000  Uiso   1.00
H85    H     0.17820   0.92946   0.66244   0.00000  Uiso   1.00
C86    C     0.94487   0.62957   0.61989   0.00000  Uiso   1.00
H87    H     0.89729   0.53911   0.62504   0.00000  Uiso   1.00
C88    C     0.33413   0.84224   0.93281   0.00000  Uiso   1.00
H89    H     0.32553   0.92582   0.94030   0.00000  Uiso   1.00
C90    C     0.39590   0.79742   0.98291   0.00000  Uiso   1.00
H91    H     0.43810   0.84257   0.03098   0.00000  Uiso   1.00
C92    C     0.31813   0.64795   0.88165   0.00000  Uiso   1.00
H93    H     0.29739   0.56853   0.84708   0.00000  Uiso   1.00
C94    C     0.18060   0.80920   0.38561   0.00000  Uiso   1.00
H95    H     0.22160   0.74540   0.36851   0.00000  Uiso   1.00
C96    C     0.11980   0.80711   0.44743   0.00000  Uiso   1.00
H97    H     0.11920   0.74197   0.47316   0.00000  Uiso   1.00
C98    C     0.05700   0.90156   0.47400   0.00000  Uiso   1.00
C99    C     0.99850   0.90612   0.53838   0.00000  Uiso   1.00
C100   C     0.94160   0.00121   0.56593   0.00000  Uiso   1.00
C101   C     0.87670   0.00283   0.63035   0.00000  Uiso   1.00
H102   H     0.87520   0.93944   0.65750   0.00000  Uiso   1.00
C103   C     0.32927   0.62486   0.65348   0.00000  Uiso   1.00
H104   H     0.22976   0.58833   0.62245   0.00000  Uiso   1.00
C105   C     0.58230   0.68050   0.69387   0.00000  Uiso   1.00
H106   H     0.69060   0.69110   0.69763   0.00000  Uiso   1.00
C107   C     0.51120   0.72427   0.74515   0.00000  Uiso   1.00
H108   H     0.56320   0.77231   0.79193   0.00000  Uiso   1.00
C109   C     0.64728   0.30234   0.79466   0.00000  Uiso   1.00
H110   H     0.57726   0.33973   0.77971   0.00000  Uiso   1.00
C111   C     0.81306   0.37254   0.79972   0.00000  Uiso   1.00
C112   C     0.91399   0.31822   0.82353   0.00000  Uiso   1.00
H113   H     0.02718   0.36686   0.82781   0.00000  Uiso   1.00
C114   C     0.85112   0.19322   0.84122   0.00000  Uiso   1.00
C115   C     0.68567   0.12141   0.83496   0.00000  Uiso   1.00
H116   H     0.64177   0.03561   0.84640   0.00000  Uiso   1.00
C117   C     0.58525   0.17695   0.81173   0.00000  Uiso   1.00
C118   C     0.95926   0.12906   0.85989   0.00000  Uiso   1.00
C119   C     0.48205   0.55730   0.56628   0.00000  Uiso   1.00
C120   C     0.50694   0.63262   0.51419   0.00000  Uiso   1.00
C121   C     0.52010   0.76769   0.52684   0.00000  Uiso   1.00
H122   H     0.50660   0.80857   0.57169   0.00000  Uiso   1.00
C123   C     0.55180   0.83775   0.47530   0.00000  Uiso   1.00
H124   H     0.56170   0.92779   0.48478   0.00000  Uiso   1.00
C125   C     0.47419   0.42694   0.55455   0.00000  Uiso   1.00
C126   C     0.44320   0.34973   0.60757   0.00000  Uiso   1.00
H127   H     0.43220   0.38849   0.65342   0.00000  Uiso   1.00
C128   C     0.42960   0.22100   0.59254   0.00000  Uiso   1.00
H129   H     0.40740   0.16990   0.62782   0.00000  Uiso   1.00
C130   C     0.71650   0.72975   0.95616   0.00000  Uiso   1.00
H131   H     0.67990   0.79128   0.94156   0.00000  Uiso   1.00
C132   C     0.60591   0.61422   0.97734   0.00000  Uiso   1.00
C133   C     0.44379   0.58662   0.97738   0.00000  Uiso   1.00
C134   C     0.33602   0.47664   0.00002   0.00000  Uiso   1.00
C135   C     0.17130   0.45062   0.00198   0.00000  Uiso   1.00
H136   H     0.13120   0.51091   0.98835   0.00000  Uiso   1.00
C137   C     0.07120   0.34050   0.02315   0.00000  Uiso   1.00
H138   H     0.96210   0.32522   0.02454   0.00000  Uiso   1.00
C139   C     0.12720   0.24800   0.04322   0.00000  Uiso   1.00
H140   H     0.05470   0.16993   0.05632   0.00000  Uiso   1.00
C141   C     0.88100   0.50544   0.77755   0.00000  Uiso   1.00
C142   C     0.18300   0.90590   0.34669   0.00000  Uiso   1.00
H143   H     0.22700   0.90700   0.30395   0.00000  Uiso   1.00
Co144  Co    0.18076   0.74336   0.76868   0.00000  Uiso   1.00
N145   N     0.06836   0.73486   0.66698   0.00000  Uiso   1.00
N146   N     0.00009   0.81074   0.57884   0.00000  Uiso   1.00
N147   N     0.28582   0.74820   0.86944   0.00000  Uiso   1.00
N148   N     0.38447   0.67277   0.94960   0.00000  Uiso   1.00
N149   N     0.35218   0.68897   0.71961   0.00000  Uiso   1.00
N150   N     0.46470   0.61731   0.63503   0.00000  Uiso   1.00
O151   O     0.30377   0.13318   0.74941   0.00000  Uiso   1.00
O152   O     0.35074   0.94458   0.77517   0.00000  Uiso   1.00
O153   O     0.32660   0.10591   0.87040   0.00000  Uiso   1.00
O154   O     0.11215   0.20910   0.86337   0.00000  Uiso   1.00
H155   H     0.16810   0.16620   0.86810   0.00000  Uiso   1.00
O156   O     0.90985   0.01512   0.86917   0.00000  Uiso   1.00
O157   O     0.79347   0.56538   0.77369   0.00000  Uiso   1.00
O158   O     0.02468   0.54421   0.76446   0.00000  Uiso   1.00
O159   O     0.01342   0.81560   0.80658   0.00000  Uiso   1.00
H160   H     0.91420   0.75789   0.80360   0.00000  Uiso   1.00
H161   H     0.01970   0.88890   0.83418   0.00000  Uiso   1.00
S162   S     0.37371   0.08376   0.80059   0.00000  Uiso   1.00
loop_
_geom_bond_atom_site_label_1
_geom_bond_atom_site_label_2
_geom_bond_distance
_geom_bond_site_symmetry_2
_ccdc_geom_bond_type
C1     H2      0.950   .     S
C1     C5      1.357   .     S
C1     N65     1.378   1_455 S
C3     H4      0.950   .     S
C3     N64     1.313   .     S
C3     N65     1.354   .     S
C5     H6      0.950   .     S
C5     N64     1.379   1_455 S
C7     H8      0.950   .     S
C7     C9      1.358   .     S
C7     N66     1.378   .     S
C9     H10     0.950   1_554 S
C9     N67     1.379   .     S
H10    C9      0.950   1_556 S
C11    H12     0.950   .     S
C11    N66     1.318   .     S
C11    N67     1.348   .     S
C13    H14     0.950   .     S
C13    C15     1.362   .     S
C13    C61     1.416   .     S
C15    H16     0.950   .     S
C15    C17     1.427   .     S
C17    C18     1.399   1_655 S
C17    C100    1.437   .     S
C18    C17     1.399   1_455 S
C18    C19     1.399   1_545 S
C18    N65     1.433   1_455 S
C19    C18     1.399   1_565 S
C19    C20     1.426   .     S
C19    C98     1.437   .     S
C20    H21     0.950   1_565 S
C20    C142    1.359   .     S
H21    C20     0.950   1_545 S
C22    H23     0.950   .     S
C22    N68     1.312   .     S
C22    N69     1.349   .     S
C24    H25     0.950   .     S
C24    C26     1.354   .     S
C24    N69     1.379   .     S
C26    H27     0.950   .     S
C26    N68     1.380   .     S
C28    H29     0.950   .     S
C28    C30     1.392   .     S
C28    C36     1.391   .     S
C30    C31     1.388   .     S
C30    C60     1.512   .     S
C31    H32     0.950   1_455 S
C31    C33     1.393   .     S
H32    C31     0.950   1_655 S
C33    C34     1.390   .     S
C33    C37     1.496   .     S
C34    H35     0.950   .     S
C34    C36     1.391   .     S
C36    S81     1.774   .     S
C37    O73     1.317   1_455 S
C37    O75     1.215   .     S
C38    C39     1.402   .     S
C38    C44     1.397   .     S
C38    N69     1.434   .     S
C39    C40     1.431   .     S
C39    C125    1.437   .     S
C40    H41     0.950   .     S
C40    C42     1.356   .     S
C42    H43     0.950   .     S
C42    C128    1.418   .     S
C44    C45     1.430   .     S
C44    C120    1.437   .     S
C45    H46     0.950   .     S
C45    C47     1.360   .     S
C47    H48     0.950   .     S
C47    C123    1.418   .     S
C49    H50     0.950   .     S
C49    C51     1.434   .     S
C49    C139    1.355   .     S
C51    C52     1.396   .     S
C51    C134    1.434   .     S
C52    C53     1.398   1_554 S
C52    N67     1.438   .     S
C53    C52     1.398   1_556 S
C53    C54     1.428   .     S
C53    C132    1.434   .     S
C54    H55     0.950   1_556 S
C54    C56     1.359   .     S
H55    C54     0.950   1_554 S
C56    H57     0.951   1_655 S
C56    C58     1.419   .     S
H57    C56     0.951   1_455 S
C58    H59     0.950   .     S
C58    C130    1.355   .     S
C60    O76     1.239   .     S
C60    O77     1.275   1_455 S
C61    H62     0.950   .     S
C61    C101    1.359   .     S
Co63   N64     2.136   .     S
Co63   O71     2.129   .     S
Co63   O78     2.119   .     S
Co63   O77     2.083   .     S
Co63   N66     2.106   .     S
Co63   N68     2.128   .     S
N64    C5      1.379   1_655 S
N65    C1      1.378   1_655 S
N65    C18     1.433   1_655 S
O70    S81     1.448   .     S
O71    S81     1.460   1_545 S
O72    S81     1.464   .     S
O73    C37     1.317   1_655 S
O73    H74     0.840   .     S
O77    C60     1.275   1_655 S
O78    H79     0.870   1_655 S
O78    H80     0.870   .     S
H79    O78     0.870   1_455 S
S81    O71     1.460   1_565 S
C82    H83     0.950   .     S
C82    C86     1.357   .     S
C82    N146    1.378   1_655 S
C84    H85     0.950   .     S
C84    N145    1.313   .     S
C84    N146    1.354   .     S
C86    H87     0.950   .     S
C86    N145    1.379   1_655 S
C88    H89     0.950   .     S
C88    C90     1.358   .     S
C88    N147    1.378   .     S
C90    H91     0.950   1_556 S
C90    N148    1.379   .     S
H91    C90     0.950   1_554 S
C92    H93     0.950   .     S
C92    N147    1.318   .     S
C92    N148    1.348   .     S
C94    H95     0.950   .     S
C94    C96     1.362   .     S
C94    C142    1.416   .     S
C96    H97     0.950   .     S
C96    C98     1.427   .     S
C98    C99     1.399   1_455 S
C99    C98     1.399   1_655 S
C99    C100    1.399   1_565 S
C99    N146    1.433   1_655 S
C100   C99     1.399   1_545 S
C100   C101    1.426   .     S
C101   H102    0.950   1_545 S
H102   C101    0.950   1_565 S
C103   H104    0.950   .     S
C103   N149    1.312   .     S
C103   N150    1.349   .     S
C105   H106    0.950   .     S
C105   C107    1.354   .     S
C105   N150    1.379   .     S
C107   H108    0.950   .     S
C107   N149    1.380   .     S
C109   H110    0.950   .     S
C109   C111    1.392   .     S
C109   C117    1.391   .     S
C111   C112    1.388   .     S
C111   C141    1.512   .     S
C112   H113    0.950   1_655 S
C112   C114    1.393   .     S
H113   C112    0.950   1_455 S
C114   C115    1.390   .     S
C114   C118    1.496   .     S
C115   H116    0.950   .     S
C115   C117    1.391   .     S
C117   S162    1.774   .     S
C118   O154    1.317   1_655 S
C118   O156    1.215   .     S
C119   C120    1.402   .     S
C119   C125    1.397   .     S
C119   N150    1.434   .     S
C120   C121    1.431   .     S
C121   H122    0.950   .     S
C121   C123    1.356   .     S
C123   H124    0.950   .     S
C125   C126    1.430   .     S
C126   H127    0.950   .     S
C126   C128    1.360   .     S
C128   H129    0.950   .     S
C130   H131    0.950   .     S
C130   C132    1.434   .     S
C132   C133    1.396   .     S
C133   C134    1.398   1_556 S
C133   N148    1.438   .     S
C134   C133    1.398   1_554 S
C134   C135    1.428   .     S
C135   H136    0.950   1_554 S
C135   C137    1.359   .     S
H136   C135    0.950   1_556 S
C137   H138    0.951   1_455 S
C137   C139    1.419   .     S
H138   C137    0.951   1_655 S
C139   H140    0.950   .     S
C141   O157    1.239   .     S
C141   O158    1.275   1_655 S
C142   H143    0.950   .     S
Co144  N145    2.136   .     S
Co144  O152    2.129   .     S
Co144  O159    2.119   .     S
Co144  O158    2.083   .     S
Co144  N147    2.106   .     S
Co144  N149    2.128   .     S
N145   C86     1.379   1_455 S
N146   C82     1.378   1_455 S
N146   C99     1.433   1_455 S
O151   S162    1.448   .     S
O152   S162    1.460   1_565 S
O153   S162    1.464   .     S
O154   C118    1.317   1_455 S
O154   H155    0.840   .     S
O158   C141    1.275   1_455 S
O159   H160    0.870   1_455 S
O159   H161    0.870   .     S
H160   O159    0.870   1_655 S
S162   O152    1.460   1_545 S
