data_CINVED_FSR
_audit_creation_date              2024-06-11
_audit_creation_method            'Materials Studio'
_symmetry_space_group_name_H-M    'P1'
_symmetry_Int_Tables_number       1
_symmetry_cell_setting            triclinic
loop_
_symmetry_equiv_pos_as_xyz
  x,y,z
_cell_length_a                    8.3252
_cell_length_b                    9.3565
_cell_length_c                    32.4860
_cell_angle_alpha                 90.0000
_cell_angle_beta                  90.0000
_cell_angle_gamma                 90.0000
loop_
_atom_site_label
_atom_site_type_symbol
_atom_site_fract_x
_atom_site_fract_y
_atom_site_fract_z
_atom_site_U_iso_or_equiv
_atom_site_adp_type
_atom_site_occupancy
Cd1    Cd    0.07493   0.30795   0.18062   0.00000  Uiso   1.00
O2     O     0.22870   0.19240  -0.01785   0.00000  Uiso   1.00
O3     O     0.90240   0.17810   0.13866   0.00000  Uiso   1.00
O4     O     0.88140   0.07840   0.07673   0.00000  Uiso   1.00
O5     O     0.01540   0.08760   0.00922   0.00000  Uiso   1.00
H6     H     0.95990   0.09760   0.02990   0.00000  Uiso   1.00
C7     C     0.38620   0.51380   0.10895   0.00000  Uiso   1.00
C8     C     0.94370   0.16610   0.10100   0.00000  Uiso   1.00
C9     C     0.45790   0.69650   0.15760   0.00000  Uiso   1.00
H10    H     0.42930   0.75420   0.17970   0.00000  Uiso   1.00
C11    C     0.07620   0.25870   0.08656   0.00000  Uiso   1.00
C12    C     0.82260   0.62210   0.09030   0.00000  Uiso   1.00
H13    H     0.83400   0.54740   0.07030   0.00000  Uiso   1.00
H14    H     0.90090   0.60940   0.11170   0.00000  Uiso   1.00
H15    H     0.83870   0.71310   0.07730   0.00000  Uiso   1.00
C16    C     0.54050   0.52280   0.09293   0.00000  Uiso   1.00
H17    H     0.56850   0.46450   0.07090   0.00000  Uiso   1.00
C18    C     0.26920   0.41270   0.09246   0.00000  Uiso   1.00
C19    C     0.61240   0.70660   0.14171   0.00000  Uiso   1.00
C20    C     0.73350   0.80960   0.15940   0.00000  Uiso   1.00
H21    H     0.77890   0.86610   0.13770   0.00000  Uiso   1.00
H22    H     0.81730   0.75700   0.17300   0.00000  Uiso   1.00
H23    H     0.68140   0.87120   0.17890   0.00000  Uiso   1.00
C24    C     0.13720   0.17730   0.01057   0.00000  Uiso   1.00
C25    C     0.34570   0.60320   0.14156   0.00000  Uiso   1.00
H26    H     0.24260   0.60010   0.15260   0.00000  Uiso   1.00
C27    C     0.15670   0.25900   0.04971   0.00000  Uiso   1.00
C28    C     0.65420   0.61630   0.10890   0.00000  Uiso   1.00
N29    N     0.14710   0.35580   0.11254   0.00000  Uiso   1.00
N30    N     0.27920   0.35620   0.05365   0.00000  Uiso   1.00
O31    O     0.85610   0.44010   0.19125   0.00000  Uiso   1.00
O32    O     0.69910   0.53840   0.23887   0.00000  Uiso   1.00
C33    C     0.72720   0.44960   0.20986   0.00000  Uiso   1.00
N34    N     0.60090   0.25190   0.16773   0.00000  Uiso   1.00
C35    C     0.58990   0.35940   0.19714   0.00000  Uiso   1.00
C36    C     0.43060   0.36370   0.20816   0.00000  Uiso   1.00
C37    C     0.33680   0.46400   0.23397   0.00000  Uiso   1.00
C38    C     0.45090   0.19720   0.16219   0.00000  Uiso   1.00
N39    N     0.34680   0.26320   0.18649   0.00000  Uiso   1.00
C40    C     0.40580   0.08750   0.13217   0.00000  Uiso   1.00
C41    C     0.49440   0.06860   0.09617   0.00000  Uiso   1.00
H42    H     0.58840   0.12040   0.09210   0.00000  Uiso   1.00
C43    C     0.44290  -0.02700   0.06632   0.00000  Uiso   1.00
C44    C     0.26800   0.00900   0.13863   0.00000  Uiso   1.00
H45    H     0.20940   0.02000   0.16280   0.00000  Uiso   1.00
C46    C     0.21770  -0.08710   0.10854   0.00000  Uiso   1.00
H47    H     0.12480  -0.14010   0.11290   0.00000  Uiso   1.00
C48    C     0.30300  -0.10540   0.07230   0.00000  Uiso   1.00
C49    C     0.54010  -0.04490   0.02770   0.00000  Uiso   1.00
H50    H     0.63310   0.01560   0.02890   0.00000  Uiso   1.00
H51    H     0.47580  -0.01900   0.00430   0.00000  Uiso   1.00
H52    H     0.57330  -0.14280   0.02510   0.00000  Uiso   1.00
C53    C     0.24000  -0.20650   0.04022   0.00000  Uiso   1.00
H54    H     0.14600  -0.25380   0.05050   0.00000  Uiso   1.00
H55    H     0.32090  -0.27620   0.03380   0.00000  Uiso   1.00
H56    H     0.21300  -0.15400   0.01580   0.00000  Uiso   1.00
O57    O     0.41430   0.55480   0.25655   0.00000  Uiso   1.00
H58    H     0.51110   0.54330   0.25340   0.00000  Uiso   1.00
O59    O     0.18930   0.46330   0.23207   0.00000  Uiso   1.00
O60    O     0.02260   0.15160   0.23157   0.00000  Uiso   1.00
Cd61   Cd    0.42507   0.69205   0.68062   0.00000  Uiso   1.00
O62    O     0.27130   0.80760   0.48215   0.00000  Uiso   1.00
O63    O     0.59760   0.82190   0.63866   0.00000  Uiso   1.00
O64    O     0.61860   0.92160   0.57673   0.00000  Uiso   1.00
O65    O     0.48460   0.91240   0.50922   0.00000  Uiso   1.00
H66    H     0.54010   0.90240   0.52990   0.00000  Uiso   1.00
C67    C     0.11380   0.48620   0.60895   0.00000  Uiso   1.00
C68    C     0.55630   0.83390   0.60100   0.00000  Uiso   1.00
C69    C     0.04210   0.30350   0.65760   0.00000  Uiso   1.00
H70    H     0.07070   0.24580   0.67970   0.00000  Uiso   1.00
C71    C     0.42380   0.74130   0.58656   0.00000  Uiso   1.00
C72    C     0.67740   0.37790   0.59030   0.00000  Uiso   1.00
H73    H     0.66600   0.45260   0.57030   0.00000  Uiso   1.00
H74    H     0.59910   0.39060   0.61170   0.00000  Uiso   1.00
H75    H     0.66130   0.28690   0.57730   0.00000  Uiso   1.00
C76    C     0.95950   0.47720   0.59293   0.00000  Uiso   1.00
H77    H     0.93150   0.53550   0.57090   0.00000  Uiso   1.00
C78    C     0.23080   0.58730   0.59246   0.00000  Uiso   1.00
C79    C     0.88760   0.29340   0.64171   0.00000  Uiso   1.00
C80    C     0.76650   0.19040   0.65940   0.00000  Uiso   1.00
H81    H     0.72110   0.13390   0.63770   0.00000  Uiso   1.00
H82    H     0.68270   0.24300   0.67300   0.00000  Uiso   1.00
H83    H     0.81860   0.12880   0.67890   0.00000  Uiso   1.00
C84    C     0.36280   0.82270   0.51057   0.00000  Uiso   1.00
C85    C     0.15430   0.39680   0.64156   0.00000  Uiso   1.00
H86    H     0.25740   0.39990   0.65260   0.00000  Uiso   1.00
C87    C     0.34330   0.74100   0.54971   0.00000  Uiso   1.00
C88    C     0.84580   0.38370   0.60890   0.00000  Uiso   1.00
N89    N     0.35290   0.64420   0.61254   0.00000  Uiso   1.00
N90    N     0.22080   0.64380   0.55365   0.00000  Uiso   1.00
O91    O     0.64390   0.55990   0.69125   0.00000  Uiso   1.00
O92    O     0.80090   0.46160   0.73887   0.00000  Uiso   1.00
C93    C     0.77280   0.55040   0.70986   0.00000  Uiso   1.00
N94    N     0.89910   0.74810   0.66773   0.00000  Uiso   1.00
C95    C     0.91010   0.64060   0.69714   0.00000  Uiso   1.00
C96    C     0.06940   0.63630   0.70816   0.00000  Uiso   1.00
C97    C     0.16320   0.53600   0.73397   0.00000  Uiso   1.00
C98    C     0.04910   0.80280   0.66219   0.00000  Uiso   1.00
N99    N     0.15320   0.73680   0.68649   0.00000  Uiso   1.00
C100   C     0.09420   0.91250   0.63217   0.00000  Uiso   1.00
C101   C     0.00560   0.93140   0.59617   0.00000  Uiso   1.00
H102   H     0.91160   0.87960   0.59210   0.00000  Uiso   1.00
C103   C     0.05710   1.02700   0.56632   0.00000  Uiso   1.00
C104   C     0.23200   0.99100   0.63863   0.00000  Uiso   1.00
H105   H     0.29060   0.98000   0.66280   0.00000  Uiso   1.00
C106   C     0.28230   1.08710   0.60854   0.00000  Uiso   1.00
H107   H     0.37520   1.14010   0.61290   0.00000  Uiso   1.00
C108   C     0.19700   1.10540   0.57230   0.00000  Uiso   1.00
C109   C     0.95990   1.04490   0.52770   0.00000  Uiso   1.00
H110   H     0.86690   0.98440   0.52890   0.00000  Uiso   1.00
H111   H     0.02420   1.01900   0.50430   0.00000  Uiso   1.00
H112   H     0.92670   1.14280   0.52510   0.00000  Uiso   1.00
C113   C     0.26000   1.20650   0.54022   0.00000  Uiso   1.00
H114   H     0.35400   1.25380   0.55050   0.00000  Uiso   1.00
H115   H     0.17910   1.27620   0.53380   0.00000  Uiso   1.00
H116   H     0.28700   1.15400   0.51580   0.00000  Uiso   1.00
O117   O     0.08570   0.44520   0.75655   0.00000  Uiso   1.00
H118   H     0.98890   0.45670   0.75340   0.00000  Uiso   1.00
O119   O     0.31070   0.53670   0.73207   0.00000  Uiso   1.00
O120   O     0.47740   0.84840   0.73157   0.00000  Uiso   1.00
Cd121  Cd    0.92507   0.80795   0.31938   0.00000  Uiso   1.00
O122   O     0.77130   0.69240   0.51785   0.00000  Uiso   1.00
O123   O     0.09760   0.67810   0.36134   0.00000  Uiso   1.00
O124   O     0.11860   0.57840   0.42327   0.00000  Uiso   1.00
O125   O     0.98460   0.58760   0.49078   0.00000  Uiso   1.00
H126   H     0.04010   0.59760   0.47010   0.00000  Uiso   1.00
C127   C     0.61380   1.01380   0.39105   0.00000  Uiso   1.00
C128   C     0.05630   0.66610   0.39900   0.00000  Uiso   1.00
C129   C     0.54210   1.19650   0.34240   0.00000  Uiso   1.00
H130   H     0.57070   1.25420   0.32030   0.00000  Uiso   1.00
C131   C     0.92380   0.75870   0.41344   0.00000  Uiso   1.00
C132   C     0.17740   1.12210   0.40970   0.00000  Uiso   1.00
H133   H     0.16600   1.04740   0.42970   0.00000  Uiso   1.00
H134   H     0.09910   1.10940   0.38830   0.00000  Uiso   1.00
H135   H     0.16130   1.21310   0.42270   0.00000  Uiso   1.00
C136   C     0.45950   1.02280   0.40707   0.00000  Uiso   1.00
H137   H     0.43150   0.96450   0.42910   0.00000  Uiso   1.00
C138   C     0.73080   0.91270   0.40754   0.00000  Uiso   1.00
C139   C     0.38760   1.20660   0.35829   0.00000  Uiso   1.00
C140   C     0.26650   1.30960   0.34060   0.00000  Uiso   1.00
H141   H     0.22110   1.36610   0.36230   0.00000  Uiso   1.00
H142   H     0.18270   1.25700   0.32700   0.00000  Uiso   1.00
H143   H     0.31860   1.37120   0.32110   0.00000  Uiso   1.00
C144   C     0.86280   0.67730   0.48943   0.00000  Uiso   1.00
C145   C     0.65430   1.10320   0.35844   0.00000  Uiso   1.00
H146   H     0.75740   1.10010   0.34740   0.00000  Uiso   1.00
C147   C     0.84330   0.75900   0.45029   0.00000  Uiso   1.00
C148   C     0.34580   1.11630   0.39110   0.00000  Uiso   1.00
N149   N     0.85290   0.85580   0.38746   0.00000  Uiso   1.00
N150   N     0.72080   0.85620   0.44635   0.00000  Uiso   1.00
O151   O     0.14390   0.94010   0.30875   0.00000  Uiso   1.00
O152   O     0.30090   1.03840   0.26113   0.00000  Uiso   1.00
C153   C     0.27280   0.94960   0.29014   0.00000  Uiso   1.00
N154   N     0.39910   0.75190   0.33227   0.00000  Uiso   1.00
C155   C     0.41010   0.85940   0.30286   0.00000  Uiso   1.00
C156   C     0.56940   0.86370   0.29184   0.00000  Uiso   1.00
C157   C     0.66320   0.96400   0.26603   0.00000  Uiso   1.00
C158   C     0.54910   0.69720   0.33781   0.00000  Uiso   1.00
N159   N     0.65320   0.76320   0.31351   0.00000  Uiso   1.00
C160   C     0.59420   0.58750   0.36783   0.00000  Uiso   1.00
C161   C     0.50560   0.56860   0.40383   0.00000  Uiso   1.00
H162   H     0.41160   0.62040   0.40790   0.00000  Uiso   1.00
C163   C     0.55710   0.47300   0.43368   0.00000  Uiso   1.00
C164   C     0.73200   0.50900   0.36137   0.00000  Uiso   1.00
H165   H     0.79060   0.52000   0.33720   0.00000  Uiso   1.00
C166   C     0.78230   0.41290   0.39146   0.00000  Uiso   1.00
H167   H     0.87520   0.35990   0.38710   0.00000  Uiso   1.00
C168   C     0.69700   0.39460   0.42770   0.00000  Uiso   1.00
C169   C     0.45990   0.45510   0.47230   0.00000  Uiso   1.00
H170   H     0.36690   0.51560   0.47110   0.00000  Uiso   1.00
H171   H     0.52420   0.48100   0.49570   0.00000  Uiso   1.00
H172   H     0.42670   0.35720   0.47490   0.00000  Uiso   1.00
C173   C     0.76000   0.29350   0.45978   0.00000  Uiso   1.00
H174   H     0.85400   0.24620   0.44950   0.00000  Uiso   1.00
H175   H     0.67910   0.22380   0.46620   0.00000  Uiso   1.00
H176   H     0.78700   0.34600   0.48420   0.00000  Uiso   1.00
O177   O     0.58570   1.05480   0.24345   0.00000  Uiso   1.00
H178   H     0.48890   1.04330   0.24660   0.00000  Uiso   1.00
O179   O     0.81070   0.96330   0.26793   0.00000  Uiso   1.00
O180   O     0.97740   0.65160   0.26843   0.00000  Uiso   1.00
Cd181  Cd    0.57493   0.19205   0.81938   0.00000  Uiso   1.00
O182   O     0.72870   0.30760   1.01785   0.00000  Uiso   1.00
O183   O     0.40240   0.32190   0.86134   0.00000  Uiso   1.00
O184   O     0.38140   0.42160   0.92327   0.00000  Uiso   1.00
O185   O     0.51540   0.41240   0.99078   0.00000  Uiso   1.00
H186   H     0.45990   0.40240   0.97010   0.00000  Uiso   1.00
C187   C     0.88620  -0.01380   0.89105   0.00000  Uiso   1.00
C188   C     0.44370   0.33390   0.89900   0.00000  Uiso   1.00
C189   C     0.95790  -0.19650   0.84240   0.00000  Uiso   1.00
H190   H     0.92930  -0.25420   0.82030   0.00000  Uiso   1.00
C191   C     0.57620   0.24130   0.91344   0.00000  Uiso   1.00
C192   C     0.32260  -0.12210   0.90970   0.00000  Uiso   1.00
H193   H     0.33400  -0.04740   0.92970   0.00000  Uiso   1.00
H194   H     0.40090  -0.10940   0.88830   0.00000  Uiso   1.00
H195   H     0.33870  -0.21310   0.92270   0.00000  Uiso   1.00
C196   C     0.04050  -0.02280   0.90707   0.00000  Uiso   1.00
H197   H     0.06850   0.03550   0.92910   0.00000  Uiso   1.00
C198   C     0.76920   0.08730   0.90754   0.00000  Uiso   1.00
C199   C     0.11240  -0.20660   0.85829   0.00000  Uiso   1.00
C200   C     0.23350  -0.30960   0.84060   0.00000  Uiso   1.00
H201   H     0.27890  -0.36610   0.86230   0.00000  Uiso   1.00
H202   H     0.31730  -0.25700   0.82700   0.00000  Uiso   1.00
H203   H     0.18140  -0.37120   0.82110   0.00000  Uiso   1.00
C204   C     0.63720   0.32270   0.98943   0.00000  Uiso   1.00
C205   C     0.84570  -0.10320   0.85844   0.00000  Uiso   1.00
H206   H     0.74260  -0.10010   0.84740   0.00000  Uiso   1.00
C207   C     0.65670   0.24100   0.95029   0.00000  Uiso   1.00
C208   C     0.15420  -0.11630   0.89110   0.00000  Uiso   1.00
N209   N     0.64710   0.14420   0.88746   0.00000  Uiso   1.00
N210   N     0.77920   0.14380   0.94635   0.00000  Uiso   1.00
O211   O     0.35610   0.05990   0.80875   0.00000  Uiso   1.00
O212   O     0.19910  -0.03840   0.76113   0.00000  Uiso   1.00
C213   C     0.22720   0.05040   0.79014   0.00000  Uiso   1.00
N214   N     0.10090   0.24810   0.83227   0.00000  Uiso   1.00
C215   C     0.08990   0.14060   0.80286   0.00000  Uiso   1.00
C216   C     0.93060   0.13630   0.79184   0.00000  Uiso   1.00
C217   C     0.83680   0.03600   0.76603   0.00000  Uiso   1.00
C218   C     0.95090   0.30280   0.83781   0.00000  Uiso   1.00
N219   N     0.84680   0.23680   0.81351   0.00000  Uiso   1.00
C220   C     0.90580   0.41250   0.86783   0.00000  Uiso   1.00
C221   C     0.99440   0.43140   0.90383   0.00000  Uiso   1.00
H222   H     0.08840   0.37960   0.90790   0.00000  Uiso   1.00
C223   C     0.94290   0.52700   0.93368   0.00000  Uiso   1.00
C224   C     0.76800   0.49100   0.86137   0.00000  Uiso   1.00
H225   H     0.70940   0.48000   0.83720   0.00000  Uiso   1.00
C226   C     0.71770   0.58710   0.89146   0.00000  Uiso   1.00
H227   H     0.62480   0.64010   0.88710   0.00000  Uiso   1.00
C228   C     0.80300   0.60540   0.92770   0.00000  Uiso   1.00
C229   C     0.04010   0.54490   0.97230   0.00000  Uiso   1.00
H230   H     0.13310   0.48440   0.97110   0.00000  Uiso   1.00
H231   H     0.97580   0.51900   0.99570   0.00000  Uiso   1.00
H232   H     0.07330   0.64280   0.97490   0.00000  Uiso   1.00
C233   C     0.74000   0.70650   0.95978   0.00000  Uiso   1.00
H234   H     0.64600   0.75380   0.94950   0.00000  Uiso   1.00
H235   H     0.82090   0.77620   0.96620   0.00000  Uiso   1.00
H236   H     0.71300   0.65400   0.98420   0.00000  Uiso   1.00
O237   O     0.91430  -0.05480   0.74345   0.00000  Uiso   1.00
H238   H     0.01110  -0.04330   0.74660   0.00000  Uiso   1.00
O239   O     0.68930   0.03670   0.76793   0.00000  Uiso   1.00
O240   O     0.52260   0.34840   0.76843   0.00000  Uiso   1.00
loop_
_geom_bond_atom_site_label_1
_geom_bond_atom_site_label_2
_geom_bond_distance
_geom_bond_site_symmetry_2
_ccdc_geom_bond_type
Cd1    O3      2.323   1_455 S
Cd1    N29     2.335   .     S
Cd1    O31     2.229   1_455 S
Cd1    O60     2.252   .     S
Cd1    N39     2.310   .     S
Cd1    O59     2.411   .     S
O2     C24     1.205   .     S
O3     Cd1     2.323   1_655 S
O3     C8      1.276   .     S
O4     C8      1.251   .     S
O5     H6      0.821   1_455 S
O5     C24     1.317   .     S
H6     O5      0.821   1_655 S
C7     C16     1.389   .     S
C7     C18     1.460   .     S
C7     C25     1.391   .     S
C8     C11     1.479   1_655 S
C9     H10     0.929   .     S
C9     C19     1.389   .     S
C9     C25     1.381   .     S
C11    C8      1.479   1_455 S
C11    C27     1.372   .     S
C11    N29     1.373   .     S
C12    H13     0.959   .     S
C12    H14     0.960   .     S
C12    H15     0.960   .     S
C12    C28     1.528   .     S
C16    H17     0.930   .     S
C16    C28     1.389   .     S
C18    N30     1.370   .     S
C18    N29     1.320   .     S
C19    C20     1.508   .     S
C19    C28     1.404   .     S
C20    H21     0.959   .     S
C20    H22     0.961   .     S
C20    H23     0.960   .     S
C24    C27     1.492   .     S
C25    H26     0.931   .     S
C27    N30     1.372   .     S
O31    Cd1     2.229   1_655 S
O31    C33     1.235   .     S
O32    C33     1.278   .     S
C33    C35     1.480   .     S
N34    C35     1.390   .     S
N34    C38     1.362   .     S
C35    C36     1.374   .     S
C36    C37     1.481   .     S
C36    N39     1.366   .     S
C37    O57     1.295   .     S
C37    O59     1.230   .     S
C38    C40     1.465   .     S
C38    N39     1.325   .     S
C40    C41     1.394   .     S
C40    C44     1.378   .     S
C41    H42     0.930   .     S
C41    C43     1.387   .     S
C43    C48     1.390   .     S
C43    C49     1.502   .     S
C44    H45     0.930   .     S
C44    C46     1.393   .     S
C46    H47     0.930   .     S
C46    C48     1.386   .     S
C48    C53     1.502   .     S
C49    H50     0.960   .     S
C49    H51     0.961   .     S
C49    H52     0.961   .     S
C53    H54     0.959   .     S
C53    H55     0.960   .     S
C53    H56     0.960   .     S
O57    H58     0.819   .     S
Cd61   O63     2.323   .     S
Cd61   N89     2.335   .     S
Cd61   O91     2.229   .     S
Cd61   O120    2.252   .     S
Cd61   N99     2.310   .     S
Cd61   O119    2.411   .     S
O62    C84     1.205   .     S
O63    C68     1.276   .     S
O64    C68     1.251   .     S
O65    H66     0.821   .     S
O65    C84     1.317   .     S
C67    C76     1.389   1_455 S
C67    C78     1.460   .     S
C67    C85     1.391   .     S
C68    C71     1.479   .     S
C69    H70     0.929   .     S
C69    C79     1.389   1_455 S
C69    C85     1.381   .     S
C71    C87     1.372   .     S
C71    N89     1.373   .     S
C72    H73     0.959   .     S
C72    H74     0.960   .     S
C72    H75     0.960   .     S
C72    C88     1.528   .     S
C76    C67     1.389   1_655 S
C76    H77     0.930   .     S
C76    C88     1.389   .     S
C78    N90     1.370   .     S
C78    N89     1.320   .     S
C79    C69     1.389   1_655 S
C79    C80     1.508   .     S
C79    C88     1.404   .     S
C80    H81     0.959   .     S
C80    H82     0.961   .     S
C80    H83     0.960   .     S
C84    C87     1.492   .     S
C85    H86     0.931   .     S
C87    N90     1.372   .     S
O91    C93     1.235   .     S
O92    C93     1.278   .     S
C93    C95     1.480   .     S
N94    C95     1.390   .     S
N94    C98     1.362   1_655 S
C95    C96     1.374   1_655 S
C96    C95     1.374   1_455 S
C96    C97     1.481   .     S
C96    N99     1.366   .     S
C97    O117    1.295   .     S
C97    O119    1.230   .     S
C98    N94     1.362   1_455 S
C98    C100    1.465   .     S
C98    N99     1.325   .     S
C100   C101    1.394   .     S
C100   C104    1.378   .     S
C101   H102    0.930   1_455 S
C101   C103    1.387   .     S
H102   C101    0.930   1_655 S
C103   C108    1.390   .     S
C103   C109    1.502   1_455 S
C104   H105    0.930   .     S
C104   C106    1.393   .     S
C106   H107    0.930   .     S
C106   C108    1.386   .     S
C108   C113    1.502   .     S
C109   C103    1.502   1_655 S
C109   H110    0.960   .     S
C109   H111    0.961   1_655 S
C109   H112    0.961   .     S
H111   C109    0.961   1_455 S
C113   H114    0.959   .     S
C113   H115    0.960   .     S
C113   H116    0.960   .     S
O117   H118    0.819   1_455 S
H118   O117    0.819   1_655 S
Cd121  O123    2.323   1_655 S
Cd121  N149    2.335   .     S
Cd121  O151    2.229   1_655 S
Cd121  O180    2.252   .     S
Cd121  N159    2.310   .     S
Cd121  O179    2.411   .     S
O122   C144    1.205   .     S
O123   Cd121   2.323   1_455 S
O123   C128    1.276   .     S
O124   C128    1.251   .     S
O125   H126    0.821   1_655 S
O125   C144    1.317   .     S
H126   O125    0.821   1_455 S
C127   C136    1.389   .     S
C127   C138    1.460   .     S
C127   C145    1.391   .     S
C128   C131    1.479   1_455 S
C129   H130    0.929   .     S
C129   C139    1.389   .     S
C129   C145    1.381   .     S
C131   C128    1.479   1_655 S
C131   C147    1.372   .     S
C131   N149    1.373   .     S
C132   H133    0.959   .     S
C132   H134    0.960   .     S
C132   H135    0.960   .     S
C132   C148    1.528   .     S
C136   H137    0.930   .     S
C136   C148    1.389   .     S
C138   N150    1.370   .     S
C138   N149    1.320   .     S
C139   C140    1.508   .     S
C139   C148    1.404   .     S
C140   H141    0.959   .     S
C140   H142    0.961   .     S
C140   H143    0.960   .     S
C144   C147    1.492   .     S
C145   H146    0.931   .     S
C147   N150    1.372   .     S
O151   Cd121   2.229   1_455 S
O151   C153    1.235   .     S
O152   C153    1.278   .     S
C153   C155    1.480   .     S
N154   C155    1.390   .     S
N154   C158    1.362   .     S
C155   C156    1.374   .     S
C156   C157    1.481   .     S
C156   N159    1.366   .     S
C157   O177    1.295   .     S
C157   O179    1.230   .     S
C158   C160    1.465   .     S
C158   N159    1.325   .     S
C160   C161    1.394   .     S
C160   C164    1.378   .     S
C161   H162    0.930   .     S
C161   C163    1.387   .     S
C163   C168    1.390   .     S
C163   C169    1.502   .     S
C164   H165    0.930   .     S
C164   C166    1.393   .     S
C166   H167    0.930   .     S
C166   C168    1.386   .     S
C168   C173    1.502   .     S
C169   H170    0.960   .     S
C169   H171    0.961   .     S
C169   H172    0.961   .     S
C173   H174    0.959   .     S
C173   H175    0.960   .     S
C173   H176    0.960   .     S
O177   H178    0.819   .     S
Cd181  O183    2.323   .     S
Cd181  N209    2.335   .     S
Cd181  O211    2.229   .     S
Cd181  O240    2.252   .     S
Cd181  N219    2.310   .     S
Cd181  O239    2.411   .     S
O182   C204    1.205   .     S
O183   C188    1.276   .     S
O184   C188    1.251   .     S
O185   H186    0.821   .     S
O185   C204    1.317   .     S
C187   C196    1.389   1_655 S
C187   C198    1.460   .     S
C187   C205    1.391   .     S
C188   C191    1.479   .     S
C189   H190    0.929   .     S
C189   C199    1.389   1_655 S
C189   C205    1.381   .     S
C191   C207    1.372   .     S
C191   N209    1.373   .     S
C192   H193    0.959   .     S
C192   H194    0.960   .     S
C192   H195    0.960   .     S
C192   C208    1.528   .     S
C196   C187    1.389   1_455 S
C196   H197    0.930   .     S
C196   C208    1.389   .     S
C198   N210    1.370   .     S
C198   N209    1.320   .     S
C199   C189    1.389   1_455 S
C199   C200    1.508   .     S
C199   C208    1.404   .     S
C200   H201    0.959   .     S
C200   H202    0.961   .     S
C200   H203    0.960   .     S
C204   C207    1.492   .     S
C205   H206    0.931   .     S
C207   N210    1.372   .     S
O211   C213    1.235   .     S
O212   C213    1.278   .     S
C213   C215    1.480   .     S
N214   C215    1.390   .     S
N214   C218    1.362   1_455 S
C215   C216    1.374   1_455 S
C216   C215    1.374   1_655 S
C216   C217    1.481   .     S
C216   N219    1.366   .     S
C217   O237    1.295   .     S
C217   O239    1.230   .     S
C218   N214    1.362   1_655 S
C218   C220    1.465   .     S
C218   N219    1.325   .     S
C220   C221    1.394   .     S
C220   C224    1.378   .     S
C221   H222    0.930   1_655 S
C221   C223    1.387   .     S
H222   C221    0.930   1_455 S
C223   C228    1.390   .     S
C223   C229    1.502   1_655 S
C224   H225    0.930   .     S
C224   C226    1.393   .     S
C226   H227    0.930   .     S
C226   C228    1.386   .     S
C228   C233    1.502   .     S
C229   C223    1.502   1_455 S
C229   H230    0.960   .     S
C229   H231    0.961   1_455 S
C229   H232    0.961   .     S
H231   C229    0.961   1_655 S
C233   H234    0.959   .     S
C233   H235    0.960   .     S
C233   H236    0.960   .     S
O237   H238    0.819   1_655 S
H238   O237    0.819   1_455 S
