data_COHKAO_FSR
_audit_creation_date              2024-06-11
_audit_creation_method            'Materials Studio'
_symmetry_space_group_name_H-M    'P1'
_symmetry_Int_Tables_number       1
_symmetry_cell_setting            triclinic
loop_
_symmetry_equiv_pos_as_xyz
  x,y,z
_cell_length_a                    10.0030
_cell_length_b                    17.0024
_cell_length_c                    16.0933
_cell_angle_alpha                 90.0000
_cell_angle_beta                  92.0870
_cell_angle_gamma                 90.0000
loop_
_atom_site_label
_atom_site_type_symbol
_atom_site_fract_x
_atom_site_fract_y
_atom_site_fract_z
_atom_site_U_iso_or_equiv
_atom_site_adp_type
_atom_site_occupancy
Cd1    Cd    0.06755   0.91074   0.71697   0.00000  Uiso   1.00
O2     O     0.87684   0.96827   0.65834   0.00000  Uiso   1.00
N3     N     0.77748   0.92186   0.92341   0.00000  Uiso   1.00
C4     C     0.90467   0.91069   0.90269   0.00000  Uiso   1.00
C5     C     0.13497   0.87904   0.47330   0.00000  Uiso   1.00
O6     O     0.66816   1.00469   0.67941   0.00000  Uiso   1.00
N7     N     0.17663   0.95832   0.60206   0.00000  Uiso   1.00
O8     O     0.17504   1.02833   0.75769   0.00000  Uiso   1.00
C9     C     0.01084   0.88236   0.96092   0.00000  Uiso   1.00
O10    O     0.44089   1.16057   0.59600   0.00000  Uiso   1.00
H11    H     0.39940   1.14740   0.63680   0.00000  Uiso   1.00
N12    N     0.92116   0.92881   0.82326   0.00000  Uiso   1.00
O13    O     0.30460   1.12571   0.71576   0.00000  Uiso   1.00
N14    N     0.29187   0.99096   0.49318   0.00000  Uiso   1.00
C15    C     0.20207   0.94069   0.52340   0.00000  Uiso   1.00
O16    O     0.50253   0.99691   0.79298   0.00000  Uiso   1.00
H17    H     0.55460   0.99900   0.75490   0.00000  Uiso   1.00
C18    C     0.32543   1.04440   0.55372   0.00000  Uiso   1.00
C19    C     0.25317   1.02325   0.62153   0.00000  Uiso   1.00
C20    C     0.70769   0.94984   0.85489   0.00000  Uiso   1.00
C21    C     0.14083   0.90906   0.95349   0.00000  Uiso   1.00
H22    H     0.15910   0.94660   0.91350   0.00000  Uiso   1.00
C23    C     0.78069   0.97760   0.70402   0.00000  Uiso   1.00
C24    C     0.79794   0.95402   0.79311   0.00000  Uiso   1.00
O25    O     0.46375   1.11640   0.46753   0.00000  Uiso   1.00
C26    C     0.24374   1.06125   0.70460   0.00000  Uiso   1.00
C27    C    -0.00001   0.86519   0.48424   0.00000  Uiso   1.00
H28    H     0.95590   0.89160   0.52580   0.00000  Uiso   1.00
C29    C     0.41716   1.11050   0.53556   0.00000  Uiso   1.00
C30    C     0.56328   0.96620   0.85876   0.00000  Uiso   1.00
C31    C     0.20086   0.83797   0.41261   0.00000  Uiso   1.00
H32    H     0.29200   0.84570   0.40640   0.00000  Uiso   1.00
O33    O     0.50481   0.95191   0.92101   0.00000  Uiso   1.00
C34    C     0.98298   0.82817   0.02256   0.00000  Uiso   1.00
H35    H     0.89560   0.81120   0.02900   0.00000  Uiso   1.00
N36    N     0.76341   0.65858   0.25011   0.00000  Uiso   1.00
N37    N     0.32245   0.79052   0.11206   0.00000  Uiso   1.00
N38    N     0.98027   0.69315   0.24670   0.00000  Uiso   1.00
C39    C     0.93057   0.81220   0.43348   0.00000  Uiso   1.00
H40    H     0.84050   0.80230   0.44140   0.00000  Uiso   1.00
C41    C     0.24387   0.88059   0.00480   0.00000  Uiso   1.00
H42    H     0.33090   0.89860   0.99970   0.00000  Uiso   1.00
C43    C     0.99619   0.77429   0.37107   0.00000  Uiso   1.00
C44    C     0.21441   0.82467   0.06384   0.00000  Uiso   1.00
C45    C     0.88120   0.65432   0.21033   0.00000  Uiso   1.00
H46    H     0.89050   0.62610   0.16140   0.00000  Uiso   1.00
C47    C     0.13186   0.78540   0.36109   0.00000  Uiso   1.00
H48    H     0.17610   0.75790   0.32030   0.00000  Uiso   1.00
C49    C     0.08541   0.79941   0.07448   0.00000  Uiso   1.00
H50    H     0.06710   0.76340   0.11610   0.00000  Uiso   1.00
N51    N     0.92246   0.72434   0.31454   0.00000  Uiso   1.00
C52    C     0.79432   0.70311   0.31508   0.00000  Uiso   1.00
H53    H     0.73500   0.71760   0.35550   0.00000  Uiso   1.00
N54    N     0.44130   0.82878   0.12108   0.00000  Uiso   1.00
C55    C     0.33395   0.71869   0.14472   0.00000  Uiso   1.00
H56    H     0.26600   0.68140   0.14510   0.00000  Uiso   1.00
N57    N     0.45682   0.70829   0.17669   0.00000  Uiso   1.00
C58    C     0.51720   0.77694   0.16042   0.00000  Uiso   1.00
H59    H     0.60610   0.78690   0.17590   0.00000  Uiso   1.00
H60    H     0.31600   0.99270   0.44530   0.00000  Uiso   1.00
H61    H     0.74500   0.91680   0.96960   0.00000  Uiso   1.00
Cd62   Cd    0.43245   0.41074   0.78303   0.00000  Uiso   1.00
O63    O     0.62316   0.46827   0.84166   0.00000  Uiso   1.00
N64    N     0.72252   0.42186   0.57659   0.00000  Uiso   1.00
C65    C     0.59533   0.41069   0.59731   0.00000  Uiso   1.00
C66    C     0.36503   0.37904   0.02670   0.00000  Uiso   1.00
O67    O     0.83184   0.50469   0.82059   0.00000  Uiso   1.00
N68    N     0.32337   0.45832   0.89794   0.00000  Uiso   1.00
O69    O     0.32496   0.52833   0.74231   0.00000  Uiso   1.00
C70    C     0.48916   0.38236   0.53908   0.00000  Uiso   1.00
O71    O     0.05911   0.66057   0.90400   0.00000  Uiso   1.00
H72    H     0.10060   0.64740   0.86320   0.00000  Uiso   1.00
N73    N     0.57884   0.42881   0.67674   0.00000  Uiso   1.00
O74    O     0.19540   0.62571   0.78424   0.00000  Uiso   1.00
N75    N     0.20813   0.49096   0.00682   0.00000  Uiso   1.00
C76    C     0.29793   0.44069   0.97660   0.00000  Uiso   1.00
O77    O     0.99747   0.49691   0.70702   0.00000  Uiso   1.00
H78    H     0.94540   0.49900   0.74510   0.00000  Uiso   1.00
C79    C     0.17457   0.54440   0.94628   0.00000  Uiso   1.00
C80    C     0.24683   0.52325   0.87847   0.00000  Uiso   1.00
C81    C     0.79231   0.44984   0.64511   0.00000  Uiso   1.00
C82    C     0.35917   0.40906   0.54651   0.00000  Uiso   1.00
H83    H     0.34090   0.44660   0.58650   0.00000  Uiso   1.00
C84    C     0.71931   0.47760   0.79598   0.00000  Uiso   1.00
C85    C     0.70206   0.45402   0.70689   0.00000  Uiso   1.00
O86    O     0.03625   0.61640   0.03247   0.00000  Uiso   1.00
C87    C     0.25626   0.56125   0.79540   0.00000  Uiso   1.00
C88    C     0.50001   0.36519   0.01576   0.00000  Uiso   1.00
H89    H     0.54410   0.39160   0.97420   0.00000  Uiso   1.00
C90    C     0.08284   0.61050   0.96444   0.00000  Uiso   1.00
C91    C     0.93672   0.46620   0.64124   0.00000  Uiso   1.00
C92    C     0.29914   0.33797   0.08739   0.00000  Uiso   1.00
H93    H     0.20800   0.34570   0.09360   0.00000  Uiso   1.00
O94    O     0.99519   0.45191   0.57899   0.00000  Uiso   1.00
C95    C     0.51702   0.32817   0.47744   0.00000  Uiso   1.00
H96    H     0.60440   0.31120   0.47100   0.00000  Uiso   1.00
N97    N     0.73659   0.15858   0.24989   0.00000  Uiso   1.00
N98    N     0.17755   0.29052   0.38794   0.00000  Uiso   1.00
N99    N     0.51973   0.19315   0.25330   0.00000  Uiso   1.00
C100   C     0.56943   0.31220   0.06652   0.00000  Uiso   1.00
H101   H     0.65950   0.30230   0.05860   0.00000  Uiso   1.00
C102   C     0.25613   0.38059   0.49520   0.00000  Uiso   1.00
H103   H     0.16910   0.39860   0.50030   0.00000  Uiso   1.00
C104   C     0.50381   0.27429   0.12893   0.00000  Uiso   1.00
C105   C     0.28559   0.32467   0.43616   0.00000  Uiso   1.00
C106   C     0.61880   0.15432   0.28967   0.00000  Uiso   1.00
H107   H     0.60950   0.12610   0.33860   0.00000  Uiso   1.00
C108   C     0.36814   0.28540   0.13891   0.00000  Uiso   1.00
H109   H     0.32390   0.25790   0.17970   0.00000  Uiso   1.00
C110   C     0.41459   0.29941   0.42552   0.00000  Uiso   1.00
H111   H     0.43290   0.26340   0.38390   0.00000  Uiso   1.00
N112   N     0.57754   0.22434   0.18546   0.00000  Uiso   1.00
C113   C     0.70568   0.20311   0.18492   0.00000  Uiso   1.00
H114   H     0.76500   0.21760   0.14450   0.00000  Uiso   1.00
N115   N     0.05870   0.32878   0.37892   0.00000  Uiso   1.00
C116   C     0.16605   0.21869   0.35528   0.00000  Uiso   1.00
H117   H     0.23400   0.18140   0.35490   0.00000  Uiso   1.00
N118   N     0.04318   0.20829   0.32331   0.00000  Uiso   1.00
C119   C     0.98280   0.27694   0.33958   0.00000  Uiso   1.00
H120   H     0.89390   0.28690   0.32410   0.00000  Uiso   1.00
H121   H     0.18400   0.49270   0.05470   0.00000  Uiso   1.00
H122   H     0.75500   0.41680   0.53040   0.00000  Uiso   1.00
Cd123  Cd    0.93246   0.08926   0.28303   0.00000  Uiso   1.00
O124   O     0.12316   0.03173   0.34166   0.00000  Uiso   1.00
N125   N     0.22252   0.07814   0.07659   0.00000  Uiso   1.00
C126   C     0.09533   0.08931   0.09731   0.00000  Uiso   1.00
C127   C     0.86503   0.12096   0.52670   0.00000  Uiso   1.00
O128   O     0.33184  -0.00469   0.32059   0.00000  Uiso   1.00
N129   N     0.82337   0.04168   0.39794   0.00000  Uiso   1.00
O130   O     0.82496  -0.02833   0.24231   0.00000  Uiso   1.00
C131   C     0.98916   0.11764   0.03908   0.00000  Uiso   1.00
O132   O     0.55911  -0.16057   0.40400   0.00000  Uiso   1.00
H133   H     0.60060  -0.14740   0.36320   0.00000  Uiso   1.00
N134   N     0.07884   0.07119   0.17674   0.00000  Uiso   1.00
O135   O     0.69540  -0.12571   0.28424   0.00000  Uiso   1.00
N136   N     0.70813   0.00904   0.50682   0.00000  Uiso   1.00
C137   C     0.79793   0.05931   0.47660   0.00000  Uiso   1.00
O138   O     0.49747   0.00309   0.20702   0.00000  Uiso   1.00
H139   H     0.44540   0.00100   0.24510   0.00000  Uiso   1.00
C140   C     0.67457  -0.04440   0.44628   0.00000  Uiso   1.00
C141   C     0.74683  -0.02325   0.37847   0.00000  Uiso   1.00
C142   C     0.29231   0.05016   0.14511   0.00000  Uiso   1.00
C143   C     0.85917   0.09094   0.04651   0.00000  Uiso   1.00
H144   H     0.84090   0.05340   0.08650   0.00000  Uiso   1.00
C145   C     0.21931   0.02240   0.29598   0.00000  Uiso   1.00
C146   C     0.20206   0.04598   0.20689   0.00000  Uiso   1.00
O147   O     0.53625  -0.11640   0.53247   0.00000  Uiso   1.00
C148   C     0.75626  -0.06125   0.29540   0.00000  Uiso   1.00
C149   C     0.00001   0.13481   0.51576   0.00000  Uiso   1.00
H150   H     0.04410   0.10840   0.47420   0.00000  Uiso   1.00
C151   C     0.58284  -0.11050   0.46444   0.00000  Uiso   1.00
C152   C     0.43672   0.03380   0.14124   0.00000  Uiso   1.00
C153   C     0.79914   0.16203   0.58739   0.00000  Uiso   1.00
H154   H     0.70800   0.15430   0.59360   0.00000  Uiso   1.00
O155   O     0.49519   0.04809   0.07899   0.00000  Uiso   1.00
C156   C     0.01702   0.17183   0.97744   0.00000  Uiso   1.00
H157   H     0.10440   0.18880   0.97100   0.00000  Uiso   1.00
N158   N     0.23659   0.34142   0.74989   0.00000  Uiso   1.00
N159   N     0.67755   0.20948   0.88794   0.00000  Uiso   1.00
N160   N     0.01973   0.30685   0.75330   0.00000  Uiso   1.00
C161   C     0.06943   0.18780   0.56652   0.00000  Uiso   1.00
H162   H     0.15950   0.19770   0.55860   0.00000  Uiso   1.00
C163   C     0.75613   0.11941   0.99520   0.00000  Uiso   1.00
H164   H     0.66910   0.10140   0.00030   0.00000  Uiso   1.00
C165   C     0.00381   0.22571   0.62893   0.00000  Uiso   1.00
C166   C     0.78559   0.17533   0.93616   0.00000  Uiso   1.00
C167   C     0.11880   0.34568   0.78967   0.00000  Uiso   1.00
H168   H     0.10950   0.37390   0.83860   0.00000  Uiso   1.00
C169   C     0.86814   0.21460   0.63891   0.00000  Uiso   1.00
H170   H     0.82390   0.24210   0.67970   0.00000  Uiso   1.00
C171   C     0.91459   0.20059   0.92552   0.00000  Uiso   1.00
H172   H     0.93290   0.23660   0.88390   0.00000  Uiso   1.00
N173   N     0.07754   0.27566   0.68546   0.00000  Uiso   1.00
C174   C     0.20568   0.29689   0.68492   0.00000  Uiso   1.00
H175   H     0.26500   0.28240   0.64450   0.00000  Uiso   1.00
N176   N     0.55870   0.17122   0.87892   0.00000  Uiso   1.00
C177   C     0.66605   0.28131   0.85528   0.00000  Uiso   1.00
H178   H     0.73400   0.31860   0.85490   0.00000  Uiso   1.00
N179   N     0.54318   0.29171   0.82331   0.00000  Uiso   1.00
C180   C     0.48280   0.22306   0.83958   0.00000  Uiso   1.00
H181   H     0.39390   0.21310   0.82410   0.00000  Uiso   1.00
H182   H     0.68400   0.00730   0.55470   0.00000  Uiso   1.00
H183   H     0.25500   0.08320   0.03040   0.00000  Uiso   1.00
Cd184  Cd    0.56755   0.58926   0.21697   0.00000  Uiso   1.00
O185   O     0.37684   0.53173   0.15834   0.00000  Uiso   1.00
N186   N     0.27748   0.57814   0.42341   0.00000  Uiso   1.00
C187   C     0.40467   0.58931   0.40269   0.00000  Uiso   1.00
C188   C     0.63497   0.62096   0.97330   0.00000  Uiso   1.00
O189   O     0.16816   0.49531   0.17941   0.00000  Uiso   1.00
N190   N     0.67663   0.54168   0.10206   0.00000  Uiso   1.00
O191   O     0.67504   0.47167   0.25769   0.00000  Uiso   1.00
C192   C     0.51084   0.61764   0.46092   0.00000  Uiso   1.00
O193   O     0.94089   0.33943   0.09600   0.00000  Uiso   1.00
H194   H     0.89940   0.35260   0.13680   0.00000  Uiso   1.00
N195   N     0.42116   0.57119   0.32326   0.00000  Uiso   1.00
O196   O     0.80460   0.37429   0.21576   0.00000  Uiso   1.00
N197   N     0.79187   0.50904   0.99318   0.00000  Uiso   1.00
C198   C     0.70207   0.55931   0.02340   0.00000  Uiso   1.00
O199   O     0.00253   0.50309   0.29298   0.00000  Uiso   1.00
H200   H     0.05460   0.50100   0.25490   0.00000  Uiso   1.00
C201   C     0.82543   0.45560   0.05372   0.00000  Uiso   1.00
C202   C     0.75317   0.47675   0.12153   0.00000  Uiso   1.00
C203   C     0.20769   0.55016   0.35489   0.00000  Uiso   1.00
C204   C     0.64083   0.59094   0.45349   0.00000  Uiso   1.00
H205   H     0.65910   0.55340   0.41350   0.00000  Uiso   1.00
C206   C     0.28069   0.52240   0.20402   0.00000  Uiso   1.00
C207   C     0.29794   0.54598   0.29311   0.00000  Uiso   1.00
O208   O     0.96375   0.38360   0.96753   0.00000  Uiso   1.00
C209   C     0.74374   0.43875   0.20460   0.00000  Uiso   1.00
C210   C     0.49999   0.63481   0.98424   0.00000  Uiso   1.00
H211   H     0.45590   0.60840   0.02580   0.00000  Uiso   1.00
C212   C     0.91716   0.38950   0.03556   0.00000  Uiso   1.00
C213   C     0.06328   0.53380   0.35876   0.00000  Uiso   1.00
C214   C     0.70086   0.66203   0.91261   0.00000  Uiso   1.00
H215   H     0.79200   0.65430   0.90640   0.00000  Uiso   1.00
O216   O     0.00481   0.54809   0.42101   0.00000  Uiso   1.00
C217   C     0.48298   0.67183   0.52256   0.00000  Uiso   1.00
H218   H     0.39560   0.68880   0.52900   0.00000  Uiso   1.00
N219   N     0.26341   0.84142   0.75011   0.00000  Uiso   1.00
N220   N     0.82245   0.70948   0.61206   0.00000  Uiso   1.00
N221   N     0.48027   0.80685   0.74670   0.00000  Uiso   1.00
C222   C     0.43057   0.68780   0.93348   0.00000  Uiso   1.00
H223   H     0.34050   0.69770   0.94140   0.00000  Uiso   1.00
C224   C     0.74387   0.61941   0.50480   0.00000  Uiso   1.00
H225   H     0.83090   0.60140   0.49970   0.00000  Uiso   1.00
C226   C     0.49619   0.72571   0.87107   0.00000  Uiso   1.00
C227   C     0.71441   0.67533   0.56384   0.00000  Uiso   1.00
C228   C     0.38120   0.84568   0.71033   0.00000  Uiso   1.00
H229   H     0.39050   0.87390   0.66140   0.00000  Uiso   1.00
C230   C     0.63186   0.71460   0.86109   0.00000  Uiso   1.00
H231   H     0.67610   0.74210   0.82030   0.00000  Uiso   1.00
C232   C     0.58541   0.70059   0.57448   0.00000  Uiso   1.00
H233   H     0.56710   0.73660   0.61610   0.00000  Uiso   1.00
N234   N     0.42246   0.77566   0.81454   0.00000  Uiso   1.00
C235   C     0.29432   0.79689   0.81508   0.00000  Uiso   1.00
H236   H     0.23500   0.78240   0.85550   0.00000  Uiso   1.00
N237   N     0.94130   0.67122   0.62108   0.00000  Uiso   1.00
C238   C     0.83395   0.78131   0.64472   0.00000  Uiso   1.00
H239   H     0.76600   0.81860   0.64510   0.00000  Uiso   1.00
N240   N     0.95682   0.79171   0.67669   0.00000  Uiso   1.00
C241   C     0.01720   0.72306   0.66042   0.00000  Uiso   1.00
H242   H     0.10610   0.71310   0.67590   0.00000  Uiso   1.00
H243   H     0.81600   0.50730   0.94530   0.00000  Uiso   1.00
H244   H     0.24500   0.58320   0.46960   0.00000  Uiso   1.00
loop_
_geom_bond_atom_site_label_1
_geom_bond_atom_site_label_2
_geom_bond_distance
_geom_bond_site_symmetry_2
_ccdc_geom_bond_type
Cd1    O2      2.314   1_455 S
Cd1    N7      2.326   .     S
Cd1    O8      2.352   .     S
Cd1    N12     2.312   1_455 S
Cd1    N219    2.331   .     S
Cd1    N240    2.385   1_455 S
O2     Cd1     2.314   1_655 S
O2     C23     1.242   .     S
N3     C4      1.340   .     S
N3     C20     1.369   .     S
N3     H61     0.827   .     S
C4     C9      1.472   1_655 S
C4     N12     1.331   .     S
C5     C15     1.470   .     S
C5     C27     1.388   .     S
C5     C31     1.387   .     S
O6     C23     1.266   .     S
N7     C15     1.334   .     S
N7     C19     1.373   .     S
O8     C26     1.248   .     S
C9     C4      1.472   1_455 S
C9     C21     1.387   .     S
C9     C34     1.390   1_456 S
O10    H11     0.821   .     S
O10    C29     1.308   .     S
N12    Cd1     2.312   1_655 S
N12    C24     1.377   .     S
O13    C26     1.263   .     S
N14    C15     1.344   .     S
N14    C18     1.365   .     S
N14    H60     0.816   .     S
O16    H17     0.819   .     S
O16    C30     1.310   .     S
C18    C19     1.378   .     S
C18    C29     1.487   .     S
C19    C26     1.491   .     S
C20    C24     1.369   .     S
C20    C30     1.475   .     S
C21    H22     0.929   .     S
C21    C41     1.384   1_556 S
C23    C24     1.493   .     S
O25    C29     1.210   .     S
C27    H28     0.930   1_455 S
C27    C39     1.386   1_455 S
H28    C27     0.930   1_655 S
C30    O33     1.203   .     S
C31    H32     0.930   .     S
C31    C47     1.386   .     S
C34    C9      1.390   1_654 S
C34    H35     0.930   .     S
C34    C49     1.387   1_655 S
N36    C45     1.363   .     S
N36    C52     1.319   .     S
N36    Cd184   2.331   .     S
N37    C44     1.430   .     S
N37    N54     1.358   .     S
N37    C55     1.333   .     S
N38    C45     1.311   .     S
N38    N51     1.361   .     S
C39    C27     1.386   1_655 S
C39    H40     0.930   .     S
C39    C43     1.380   .     S
C41    C21     1.384   1_554 S
C41    H42     0.929   1_554 S
C41    C44     1.383   .     S
H42    C41     0.929   1_556 S
C43    C47     1.385   1_655 S
C43    N51     1.430   .     S
C44    C49     1.377   .     S
C45    H46     0.930   .     S
C47    H48     0.931   .     S
C47    C43     1.385   1_455 S
C49    C34     1.387   1_455 S
C49    H50     0.931   .     S
N51    C52     1.332   .     S
C52    H53     0.930   .     S
N54    C58     1.311   .     S
C55    H56     0.930   .     S
C55    N57     1.327   .     S
N57    Cd184   2.385   .     S
N57    C58     1.344   .     S
C58    H59     0.930   .     S
Cd62   O63     2.314   .     S
Cd62   N68     2.326   .     S
Cd62   O69     2.352   .     S
Cd62   N73     2.312   .     S
Cd62   N158    2.331   .     S
Cd62   N179    2.385   .     S
O63    C84     1.242   .     S
N64    C65     1.340   .     S
N64    C81     1.369   .     S
N64    H122    0.827   .     S
C65    C70     1.472   .     S
C65    N73     1.331   .     S
C66    C76     1.470   1_554 S
C66    C88     1.388   .     S
C66    C92     1.387   .     S
O67    C84     1.266   .     S
N68    C76     1.334   .     S
N68    C80     1.373   .     S
O69    C87     1.248   .     S
C70    C82     1.387   .     S
C70    C95     1.390   .     S
O71    H72     0.821   .     S
O71    C90     1.308   .     S
N73    C85     1.377   .     S
O74    C87     1.263   .     S
N75    C76     1.344   1_554 S
N75    C79     1.365   1_554 S
N75    H121    0.816   .     S
C76    C66     1.470   1_556 S
C76    N75     1.344   1_556 S
O77    H78     0.819   .     S
O77    C91     1.310   .     S
C79    N75     1.365   1_556 S
C79    C80     1.378   .     S
C79    C90     1.487   .     S
C80    C87     1.491   .     S
C81    C85     1.369   .     S
C81    C91     1.475   .     S
C82    H83     0.929   .     S
C82    C102    1.384   .     S
C84    C85     1.493   .     S
O86    C90     1.210   1_554 S
C88    H89     0.930   1_554 S
C88    C100    1.386   .     S
H89    C88     0.930   1_556 S
C90    O86     1.210   1_556 S
C91    O94     1.203   .     S
C92    H93     0.930   .     S
C92    C108    1.386   .     S
C95    H96     0.930   .     S
C95    C110    1.387   .     S
N97    C106    1.363   .     S
N97    C113    1.319   .     S
N97    Cd123   2.331   .     S
N98    C105    1.430   .     S
N98    N115    1.358   .     S
N98    C116    1.333   .     S
N99    C106    1.311   .     S
N99    N112    1.361   .     S
C100   H101    0.930   .     S
C100   C104    1.380   .     S
C102   H103    0.929   .     S
C102   C105    1.383   .     S
C104   C108    1.385   .     S
C104   N112    1.430   .     S
C105   C110    1.377   .     S
C106   H107    0.930   .     S
C108   H109    0.931   .     S
C110   H111    0.931   .     S
N112   C113    1.332   .     S
C113   H114    0.930   .     S
N115   C119    1.311   1_455 S
C116   H117    0.930   .     S
C116   N118    1.327   .     S
N118   Cd123   2.385   1_455 S
N118   C119    1.344   1_455 S
C119   N115    1.311   1_655 S
C119   H120    0.930   .     S
C119   N118    1.344   1_655 S
Cd123  O124    2.314   1_655 S
Cd123  N129    2.326   .     S
Cd123  O130    2.352   .     S
Cd123  N134    2.312   1_655 S
Cd123  N118    2.385   1_655 S
O124   Cd123   2.314   1_455 S
O124   C145    1.242   .     S
N125   C126    1.340   .     S
N125   C142    1.369   .     S
N125   H183    0.827   .     S
C126   C131    1.472   1_455 S
C126   N134    1.331   .     S
C127   C137    1.470   .     S
C127   C149    1.388   1_655 S
C127   C153    1.387   .     S
O128   C145    1.266   .     S
N129   C137    1.334   .     S
N129   C141    1.373   .     S
O130   C148    1.248   .     S
C131   C126    1.472   1_655 S
C131   C143    1.387   .     S
C131   C156    1.390   1_654 S
O132   H133    0.821   .     S
O132   C151    1.308   .     S
N134   Cd123   2.312   1_455 S
N134   C146    1.377   .     S
O135   C148    1.263   .     S
N136   C137    1.344   .     S
N136   C140    1.365   .     S
N136   H182    0.816   .     S
O138   H139    0.819   .     S
O138   C152    1.310   .     S
C140   C141    1.378   .     S
C140   C151    1.487   .     S
C141   C148    1.491   .     S
C142   C146    1.369   .     S
C142   C152    1.475   .     S
C143   H144    0.929   .     S
C143   C163    1.384   1_554 S
C145   C146    1.493   .     S
O147   C151    1.210   .     S
C149   C127    1.388   1_455 S
C149   H150    0.930   .     S
C149   C161    1.386   .     S
C152   O155    1.203   .     S
C153   H154    0.930   .     S
C153   C169    1.386   .     S
C156   C131    1.390   1_456 S
C156   H157    0.930   .     S
C156   C171    1.387   1_455 S
N158   C167    1.363   .     S
N158   C174    1.319   .     S
N159   C166    1.430   .     S
N159   N176    1.358   .     S
N159   C177    1.333   .     S
N160   C167    1.311   .     S
N160   N173    1.361   .     S
C161   H162    0.930   .     S
C161   C165    1.380   .     S
C163   C143    1.384   1_556 S
C163   H164    0.929   1_556 S
C163   C166    1.383   .     S
H164   C163    0.929   1_554 S
C165   C169    1.385   1_455 S
C165   N173    1.430   .     S
C166   C171    1.377   .     S
C167   H168    0.930   .     S
C169   H170    0.931   .     S
C169   C165    1.385   1_655 S
C171   C156    1.387   1_655 S
C171   H172    0.931   .     S
N173   C174    1.332   .     S
C174   H175    0.930   .     S
N176   C180    1.311   .     S
C177   H178    0.930   .     S
C177   N179    1.327   .     S
N179   C180    1.344   .     S
C180   H181    0.930   .     S
Cd184  O185    2.314   .     S
Cd184  N190    2.326   .     S
Cd184  O191    2.352   .     S
Cd184  N195    2.312   .     S
O185   C206    1.242   .     S
N186   C187    1.340   .     S
N186   C203    1.369   .     S
N186   H244    0.827   .     S
C187   C192    1.472   .     S
C187   N195    1.331   .     S
C188   C198    1.470   1_556 S
C188   C210    1.388   .     S
C188   C214    1.387   .     S
O189   C206    1.266   .     S
N190   C198    1.334   .     S
N190   C202    1.373   .     S
O191   C209    1.248   .     S
C192   C204    1.387   .     S
C192   C217    1.390   .     S
O193   H194    0.821   .     S
O193   C212    1.308   .     S
N195   C207    1.377   .     S
O196   C209    1.263   .     S
N197   C198    1.344   1_556 S
N197   C201    1.365   1_556 S
N197   H243    0.816   .     S
C198   C188    1.470   1_554 S
C198   N197    1.344   1_554 S
O199   H200    0.819   .     S
O199   C213    1.310   .     S
C201   N197    1.365   1_554 S
C201   C202    1.378   .     S
C201   C212    1.487   .     S
C202   C209    1.491   .     S
C203   C207    1.369   .     S
C203   C213    1.475   .     S
C204   H205    0.929   .     S
C204   C224    1.384   .     S
C206   C207    1.493   .     S
O208   C212    1.210   1_556 S
C210   H211    0.930   1_556 S
C210   C222    1.386   .     S
H211   C210    0.930   1_554 S
C212   O208    1.210   1_554 S
C213   O216    1.203   .     S
C214   H215    0.930   .     S
C214   C230    1.386   .     S
C217   H218    0.930   .     S
C217   C232    1.387   .     S
N219   C228    1.363   .     S
N219   C235    1.319   .     S
N220   C227    1.430   .     S
N220   N237    1.358   .     S
N220   C238    1.333   .     S
N221   C228    1.311   .     S
N221   N234    1.361   .     S
C222   H223    0.930   .     S
C222   C226    1.380   .     S
C224   H225    0.929   .     S
C224   C227    1.383   .     S
C226   C230    1.385   .     S
C226   N234    1.430   .     S
C227   C232    1.377   .     S
C228   H229    0.930   .     S
C230   H231    0.931   .     S
C232   H233    0.931   .     S
N234   C235    1.332   .     S
C235   H236    0.930   .     S
N237   C241    1.311   1_655 S
C238   H239    0.930   .     S
C238   N240    1.327   .     S
N240   Cd1     2.385   1_655 S
N240   C241    1.344   1_655 S
C241   N237    1.311   1_455 S
C241   H242    0.930   .     S
C241   N240    1.344   1_455 S
