data_CUKXUC01_FSR
_audit_creation_date              2024-06-11
_audit_creation_method            'Materials Studio'
_symmetry_space_group_name_H-M    'P1'
_symmetry_Int_Tables_number       1
_symmetry_cell_setting            triclinic
loop_
_symmetry_equiv_pos_as_xyz
  x,y,z
_cell_length_a                    12.7130
_cell_length_b                    16.7745
_cell_length_c                    14.7977
_cell_angle_alpha                 90.0000
_cell_angle_beta                  91.2650
_cell_angle_gamma                 90.0000
loop_
_atom_site_label
_atom_site_type_symbol
_atom_site_fract_x
_atom_site_fract_y
_atom_site_fract_z
_atom_site_U_iso_or_equiv
_atom_site_adp_type
_atom_site_occupancy
Eu1    Eu    0.87598   0.80165   0.55604   0.00960  Uani   1.00
O2     O     0.69350   0.78340   0.58000   0.01296  Uani   1.00
O3     O     0.29170   0.61450   0.94470   0.01506  Uani   1.00
O4     O     0.14490   0.67090   0.88470   0.01369  Uani   1.00
O5     O     0.37750   0.32720   0.71980   0.01738  Uani   1.00
O6     O     0.52370   0.76550   0.56380   0.02032  Uani   1.00
O7     O     0.32540   0.42830   0.63630   0.01870  Uani   1.00
O8     O     0.99360   0.90810   0.50230   0.02402  Uani   1.00
H9     H     0.96110   0.93590   0.46010   0.03600  Uiso   1.00
H10    H     0.04670   0.88650   0.47460   0.03600  Uiso   1.00
O11    O     0.04910   0.77330   0.62010   0.02070  Uani   1.00
H12    H     0.06820   0.72490   0.60520   0.03100  Uiso   1.00
H13    H     0.04550   0.77170   0.67910   0.03100  Uiso   1.00
N14    N     0.40850   0.65320   0.76800   0.01560  Uani   1.00
C15    C     0.22370   0.62370   0.88380   0.01426  Uani   1.00
N16    N     0.32640   0.53180   0.78830   0.01392  Uani   1.00
C17    C     0.60140   0.78550   0.61170   0.01664  Uani   1.00
C18    C     0.34660   0.39900   0.71290   0.01367  Uani   1.00
C19    C     0.58750   0.81000   0.70960   0.01930  Uani   1.00
H20    H     0.65260   0.79750   0.74460   0.02300  Uiso   1.00
H21    H     0.57620   0.86830   0.71250   0.02300  Uiso   1.00
C22    C     0.22850   0.57280   0.79880   0.01598  Uani   1.00
H23    H     0.17110   0.53290   0.80000   0.01900  Uiso   1.00
H24    H     0.21580   0.60740   0.74550   0.01900  Uiso   1.00
C25    C     0.33380   0.44550   0.79950   0.01528  Uani   1.00
H26    H     0.26940   0.42660   0.82930   0.01800  Uiso   1.00
H27    H     0.39430   0.43360   0.84050   0.01800  Uiso   1.00
C28    C     0.41520   0.57270   0.76780   0.01496  Uani   1.00
Eu29   Eu    0.37598   0.30165   0.55604   0.00960  Uani   1.00
O30    O     0.19350   0.28340   0.58000   0.01296  Uani   1.00
O31    O     0.79170   0.11450   0.94470   0.01506  Uani   1.00
O32    O     0.64490   0.17090   0.88470   0.01369  Uani   1.00
O33    O     0.87750   0.82720   0.71980   0.01738  Uani   1.00
O34    O     0.02370   0.26550   0.56380   0.02032  Uani   1.00
O35    O     0.82540   0.92830   0.63630   0.01870  Uani   1.00
O36    O     0.49360   0.40810   0.50230   0.02402  Uani   1.00
H37    H     0.46110   0.43590   0.46010   0.03600  Uiso   1.00
H38    H     0.54670   0.38650   0.47460   0.03600  Uiso   1.00
O39    O     0.54910   0.27330   0.62010   0.02070  Uani   1.00
H40    H     0.56820   0.22490   0.60520   0.03100  Uiso   1.00
H41    H     0.54550   0.27170   0.67910   0.03100  Uiso   1.00
N42    N     0.90850   0.15320   0.76800   0.01560  Uani   1.00
C43    C     0.72370   0.12370   0.88380   0.01426  Uani   1.00
N44    N     0.82640   0.03180   0.78830   0.01392  Uani   1.00
C45    C     0.10140   0.28550   0.61170   0.01664  Uani   1.00
C46    C     0.84660   0.89900   0.71290   0.01367  Uani   1.00
C47    C     0.08750   0.31000   0.70960   0.01930  Uani   1.00
H48    H     0.15260   0.29750   0.74460   0.02300  Uiso   1.00
H49    H     0.07620   0.36830   0.71250   0.02300  Uiso   1.00
C50    C     0.72850   0.07280   0.79880   0.01598  Uani   1.00
H51    H     0.67110   0.03290   0.80000   0.01900  Uiso   1.00
H52    H     0.71580   0.10740   0.74550   0.01900  Uiso   1.00
C53    C     0.83380   0.94550   0.79950   0.01528  Uani   1.00
H54    H     0.76940   0.92660   0.82930   0.01800  Uiso   1.00
H55    H     0.89430   0.93360   0.84050   0.01800  Uiso   1.00
C56    C     0.91520   0.07270   0.76780   0.01496  Uani   1.00
Eu57   Eu    0.12402   0.80165   0.94396   0.00960  Uani   1.00
O58    O     0.30650   0.78340   0.92000   0.01296  Uani   1.00
O59    O     0.70830   0.61450   0.55530   0.01506  Uani   1.00
O60    O     0.85510   0.67090   0.61530   0.01369  Uani   1.00
O61    O     0.62250   0.32720   0.78020   0.01738  Uani   1.00
O62    O     0.47630   0.76550   0.93620   0.02032  Uani   1.00
O63    O     0.67460   0.42830   0.86370   0.01870  Uani   1.00
O64    O     0.00640   0.90810   0.99770   0.02402  Uani   1.00
H65    H     0.03890   0.93590   0.03990   0.03600  Uiso   1.00
H66    H     0.95330   0.88650   0.02540   0.03600  Uiso   1.00
O67    O     0.95090   0.77330   0.87990   0.02070  Uani   1.00
H68    H     0.93180   0.72490   0.89480   0.03100  Uiso   1.00
H69    H     0.95450   0.77170   0.82090   0.03100  Uiso   1.00
N70    N     0.59150   0.65320   0.73200   0.01560  Uani   1.00
C71    C     0.77630   0.62370   0.61620   0.01426  Uani   1.00
N72    N     0.67360   0.53180   0.71170   0.01392  Uani   1.00
C73    C     0.39860   0.78550   0.88830   0.01664  Uani   1.00
C74    C     0.65340   0.39900   0.78710   0.01367  Uani   1.00
C75    C     0.41250   0.81000   0.79040   0.01930  Uani   1.00
H76    H     0.34740   0.79750   0.75540   0.02300  Uiso   1.00
H77    H     0.42380   0.86830   0.78750   0.02300  Uiso   1.00
C78    C     0.77150   0.57280   0.70120   0.01598  Uani   1.00
H79    H     0.82890   0.53290   0.70000   0.01900  Uiso   1.00
H80    H     0.78420   0.60740   0.75450   0.01900  Uiso   1.00
C81    C     0.66620   0.44550   0.70050   0.01528  Uani   1.00
H82    H     0.73060   0.42660   0.67070   0.01800  Uiso   1.00
H83    H     0.60570   0.43360   0.65950   0.01800  Uiso   1.00
C84    C     0.58480   0.57270   0.73220   0.01496  Uani   1.00
Eu85   Eu    0.62402   0.30165   0.94396   0.00960  Uani   1.00
O86    O     0.80650   0.28340   0.92000   0.01296  Uani   1.00
O87    O     0.20830   0.11450   0.55530   0.01506  Uani   1.00
O88    O     0.35510   0.17090   0.61530   0.01369  Uani   1.00
O89    O     0.12250   0.82720   0.78020   0.01738  Uani   1.00
O90    O     0.97630   0.26550   0.93620   0.02032  Uani   1.00
O91    O     0.17460   0.92830   0.86370   0.01870  Uani   1.00
O92    O     0.50640   0.40810   0.99770   0.02402  Uani   1.00
H93    H     0.53890   0.43590   0.03990   0.03600  Uiso   1.00
H94    H     0.45330   0.38650   0.02540   0.03600  Uiso   1.00
O95    O     0.45090   0.27330   0.87990   0.02070  Uani   1.00
H96    H     0.43180   0.22490   0.89480   0.03100  Uiso   1.00
H97    H     0.45450   0.27170   0.82090   0.03100  Uiso   1.00
N98    N     0.09150   0.15320   0.73200   0.01560  Uani   1.00
C99    C     0.27630   0.12370   0.61620   0.01426  Uani   1.00
N100   N     0.17360   0.03180   0.71170   0.01392  Uani   1.00
C101   C     0.89860   0.28550   0.88830   0.01664  Uani   1.00
C102   C     0.15340   0.89900   0.78710   0.01367  Uani   1.00
C103   C     0.91250   0.31000   0.79040   0.01930  Uani   1.00
H104   H     0.84740   0.29750   0.75540   0.02300  Uiso   1.00
H105   H     0.92380   0.36830   0.78750   0.02300  Uiso   1.00
C106   C     0.27150   0.07280   0.70120   0.01598  Uani   1.00
H107   H     0.32890   0.03290   0.70000   0.01900  Uiso   1.00
H108   H     0.28420   0.10740   0.75450   0.01900  Uiso   1.00
C109   C     0.16620   0.94550   0.70050   0.01528  Uani   1.00
H110   H     0.23060   0.92660   0.67070   0.01800  Uiso   1.00
H111   H     0.10570   0.93360   0.65950   0.01800  Uiso   1.00
C112   C     0.08480   0.07270   0.73220   0.01496  Uani   1.00
Eu113  Eu    0.12402   0.19835   0.44396   0.00960  Uani   1.00
O114   O     0.30650   0.21660   0.42000   0.01296  Uani   1.00
O115   O     0.70830   0.38550   0.05530   0.01506  Uani   1.00
O116   O     0.85510   0.32910   0.11530   0.01369  Uani   1.00
O117   O     0.62250   0.67280   0.28020   0.01738  Uani   1.00
O118   O     0.47630   0.23450   0.43620   0.02032  Uani   1.00
O119   O     0.67460   0.57170   0.36370   0.01870  Uani   1.00
O120   O     0.00640   0.09190   0.49770   0.02402  Uani   1.00
H121   H     0.03890   0.06410   0.53990   0.03600  Uiso   1.00
H122   H     0.95330   0.11350   0.52540   0.03600  Uiso   1.00
O123   O     0.95090   0.22670   0.37990   0.02070  Uani   1.00
H124   H     0.93180   0.27510   0.39480   0.03100  Uiso   1.00
H125   H     0.95450   0.22830   0.32090   0.03100  Uiso   1.00
N126   N     0.59150   0.34680   0.23200   0.01560  Uani   1.00
C127   C     0.77630   0.37630   0.11620   0.01426  Uani   1.00
N128   N     0.67360   0.46820   0.21170   0.01392  Uani   1.00
C129   C     0.39860   0.21450   0.38830   0.01664  Uani   1.00
C130   C     0.65340   0.60100   0.28710   0.01367  Uani   1.00
C131   C     0.41250   0.19000   0.29040   0.01930  Uani   1.00
H132   H     0.34740   0.20250   0.25540   0.02300  Uiso   1.00
H133   H     0.42380   0.13170   0.28750   0.02300  Uiso   1.00
C134   C     0.77150   0.42720   0.20120   0.01598  Uani   1.00
H135   H     0.82890   0.46710   0.20000   0.01900  Uiso   1.00
H136   H     0.78420   0.39260   0.25450   0.01900  Uiso   1.00
C137   C     0.66620   0.55450   0.20050   0.01528  Uani   1.00
H138   H     0.73060   0.57340   0.17070   0.01800  Uiso   1.00
H139   H     0.60570   0.56640   0.15950   0.01800  Uiso   1.00
C140   C     0.58480   0.42730   0.23220   0.01496  Uani   1.00
Eu141  Eu    0.62402   0.69835   0.44396   0.00960  Uani   1.00
O142   O     0.80650   0.71660   0.42000   0.01296  Uani   1.00
O143   O     0.20830   0.88550   0.05530   0.01506  Uani   1.00
O144   O     0.35510   0.82910   0.11530   0.01369  Uani   1.00
O145   O     0.12250   0.17280   0.28020   0.01738  Uani   1.00
O146   O     0.97630   0.73450   0.43620   0.02032  Uani   1.00
O147   O     0.17460   0.07170   0.36370   0.01870  Uani   1.00
O148   O     0.50640   0.59190   0.49770   0.02402  Uani   1.00
H149   H     0.53890   0.56410   0.53990   0.03600  Uiso   1.00
H150   H     0.45330   0.61350   0.52540   0.03600  Uiso   1.00
O151   O     0.45090   0.72670   0.37990   0.02070  Uani   1.00
H152   H     0.43180   0.77510   0.39480   0.03100  Uiso   1.00
H153   H     0.45450   0.72830   0.32090   0.03100  Uiso   1.00
N154   N     0.09150   0.84680   0.23200   0.01560  Uani   1.00
C155   C     0.27630   0.87630   0.11620   0.01426  Uani   1.00
N156   N     0.17360   0.96820   0.21170   0.01392  Uani   1.00
C157   C     0.89860   0.71450   0.38830   0.01664  Uani   1.00
C158   C     0.15340   0.10100   0.28710   0.01367  Uani   1.00
C159   C     0.91250   0.69000   0.29040   0.01930  Uani   1.00
H160   H     0.84740   0.70250   0.25540   0.02300  Uiso   1.00
H161   H     0.92380   0.63170   0.28750   0.02300  Uiso   1.00
C162   C     0.27150   0.92720   0.20120   0.01598  Uani   1.00
H163   H     0.32890   0.96710   0.20000   0.01900  Uiso   1.00
H164   H     0.28420   0.89260   0.25450   0.01900  Uiso   1.00
C165   C     0.16620   0.05450   0.20050   0.01528  Uani   1.00
H166   H     0.23060   0.07340   0.17070   0.01800  Uiso   1.00
H167   H     0.10570   0.06640   0.15950   0.01800  Uiso   1.00
C168   C     0.08480   0.92730   0.23220   0.01496  Uani   1.00
Eu169  Eu    0.87598   0.19835   0.05604   0.00960  Uani   1.00
O170   O     0.69350   0.21660   0.08000   0.01296  Uani   1.00
O171   O     0.29170   0.38550   0.44470   0.01506  Uani   1.00
O172   O     0.14490   0.32910   0.38470   0.01369  Uani   1.00
O173   O     0.37750   0.67280   0.21980   0.01738  Uani   1.00
O174   O     0.52370   0.23450   0.06380   0.02032  Uani   1.00
O175   O     0.32540   0.57170   0.13630   0.01870  Uani   1.00
O176   O     0.99360   0.09190   0.00230   0.02402  Uani   1.00
H177   H     0.96110   0.06410   0.96010   0.03600  Uiso   1.00
H178   H     0.04670   0.11350   0.97460   0.03600  Uiso   1.00
O179   O     0.04910   0.22670   0.12010   0.02070  Uani   1.00
H180   H     0.06820   0.27510   0.10520   0.03100  Uiso   1.00
H181   H     0.04550   0.22830   0.17910   0.03100  Uiso   1.00
N182   N     0.40850   0.34680   0.26800   0.01560  Uani   1.00
C183   C     0.22370   0.37630   0.38380   0.01426  Uani   1.00
N184   N     0.32640   0.46820   0.28830   0.01392  Uani   1.00
C185   C     0.60140   0.21450   0.11170   0.01664  Uani   1.00
C186   C     0.34660   0.60100   0.21290   0.01367  Uani   1.00
C187   C     0.58750   0.19000   0.20960   0.01930  Uani   1.00
H188   H     0.65260   0.20250   0.24460   0.02300  Uiso   1.00
H189   H     0.57620   0.13170   0.21250   0.02300  Uiso   1.00
C190   C     0.22850   0.42720   0.29880   0.01598  Uani   1.00
H191   H     0.17110   0.46710   0.30000   0.01900  Uiso   1.00
H192   H     0.21580   0.39260   0.24550   0.01900  Uiso   1.00
C193   C     0.33380   0.55450   0.29950   0.01528  Uani   1.00
H194   H     0.26940   0.57340   0.32930   0.01800  Uiso   1.00
H195   H     0.39430   0.56640   0.34050   0.01800  Uiso   1.00
C196   C     0.41520   0.42730   0.26780   0.01496  Uani   1.00
Eu197  Eu    0.37598   0.69835   0.05604   0.00960  Uani   1.00
O198   O     0.19350   0.71660   0.08000   0.01296  Uani   1.00
O199   O     0.79170   0.88550   0.44470   0.01506  Uani   1.00
O200   O     0.64490   0.82910   0.38470   0.01369  Uani   1.00
O201   O     0.87750   0.17280   0.21980   0.01738  Uani   1.00
O202   O     0.02370   0.73450   0.06380   0.02032  Uani   1.00
O203   O     0.82540   0.07170   0.13630   0.01870  Uani   1.00
O204   O     0.49360   0.59190   0.00230   0.02402  Uani   1.00
H205   H     0.46110   0.56410   0.96010   0.03600  Uiso   1.00
H206   H     0.54670   0.61350   0.97460   0.03600  Uiso   1.00
O207   O     0.54910   0.72670   0.12010   0.02070  Uani   1.00
H208   H     0.56820   0.77510   0.10520   0.03100  Uiso   1.00
H209   H     0.54550   0.72830   0.17910   0.03100  Uiso   1.00
N210   N     0.90850   0.84680   0.26800   0.01560  Uani   1.00
C211   C     0.72370   0.87630   0.38380   0.01426  Uani   1.00
N212   N     0.82640   0.96820   0.28830   0.01392  Uani   1.00
C213   C     0.10140   0.71450   0.11170   0.01664  Uani   1.00
C214   C     0.84660   0.10100   0.21290   0.01367  Uani   1.00
C215   C     0.08750   0.69000   0.20960   0.01930  Uani   1.00
H216   H     0.15260   0.70250   0.24460   0.02300  Uiso   1.00
H217   H     0.07620   0.63170   0.21250   0.02300  Uiso   1.00
C218   C     0.72850   0.92720   0.29880   0.01598  Uani   1.00
H219   H     0.67110   0.96710   0.30000   0.01900  Uiso   1.00
H220   H     0.71580   0.89260   0.24550   0.01900  Uiso   1.00
C221   C     0.83380   0.05450   0.29950   0.01528  Uani   1.00
H222   H     0.76940   0.07340   0.32930   0.01800  Uiso   1.00
H223   H     0.89430   0.06640   0.34050   0.01800  Uiso   1.00
C224   C     0.91520   0.92730   0.26780   0.01496  Uani   1.00
N225   N     0.50000   0.77000   0.75000   0.01389  Uani   1.00
N226   N     0.50000   0.52890   0.75000   0.01495  Uani   1.00
C227   C     0.50000   0.68870   0.75000   0.01623  Uani   1.00
N228   N     0.00000   0.27000   0.75000   0.01389  Uani   1.00
N229   N     0.00000   0.02890   0.75000   0.01495  Uani   1.00
C230   C     0.00000   0.18870   0.75000   0.01623  Uani   1.00
N231   N     0.50000   0.23000   0.25000   0.01389  Uani   1.00
N232   N     0.50000   0.47110   0.25000   0.01495  Uani   1.00
C233   C     0.50000   0.31130   0.25000   0.01623  Uani   1.00
N234   N     0.00000   0.73000   0.25000   0.01389  Uani   1.00
N235   N     0.00000   0.97110   0.25000   0.01495  Uani   1.00
C236   C     0.00000   0.81130   0.25000   0.01623  Uani   1.00
loop_
_atom_site_aniso_label
_atom_site_aniso_U_11
_atom_site_aniso_U_22
_atom_site_aniso_U_33
_atom_site_aniso_U_12
_atom_site_aniso_U_13
_atom_site_aniso_U_23
Eu1       0.01051   0.01033   0.00798  -0.00150   0.00058  -0.00060
O2        0.01100   0.01400   0.01400   0.00110   0.00300   0.00300
O3        0.01400   0.01900   0.01200   0.00200  -0.00400  -0.00500
O4        0.01300   0.01300   0.01500   0.00260  -0.00100  -0.00340
O5        0.02000   0.01800   0.01400   0.00400  -0.00300  -0.00500
O6        0.01500   0.02700   0.01900  -0.00200   0.00100  -0.00400
O7        0.02200   0.01700   0.01700  -0.00100  -0.00200  -0.00100
O8        0.01500   0.02600   0.03100  -0.00400  -0.00100   0.01100
O11       0.02100   0.02300   0.01800   0.00400  -0.00200  -0.00500
N14       0.01600   0.01400   0.01700   0.00100   0.00500  -0.00200
C15       0.01300   0.01600   0.01400  -0.00100   0.00500  -0.00200
N16       0.01200   0.01400   0.01600   0.00100   0.00600  -0.00400
C17       0.01700   0.01800   0.01500   0.00100   0.00200  -0.00200
C18       0.01100   0.01300   0.01700  -0.00200   0.00000  -0.00300
C19       0.01900   0.02200   0.01700  -0.00200   0.00300  -0.00100
C22       0.01500   0.01600   0.01700  -0.00400   0.00200  -0.00300
C25       0.01500   0.01600   0.01500  -0.00100   0.00400  -0.00600
C28       0.01700   0.01600   0.01200  -0.00100   0.00300  -0.00300
Eu29      0.01051   0.01033   0.00798  -0.00150   0.00058  -0.00060
O30       0.01100   0.01400   0.01400   0.00110   0.00300   0.00300
O31       0.01400   0.01900   0.01200   0.00200  -0.00400  -0.00500
O32       0.01300   0.01300   0.01500   0.00260  -0.00100  -0.00340
O33       0.02000   0.01800   0.01400   0.00400  -0.00300  -0.00500
O34       0.01500   0.02700   0.01900  -0.00200   0.00100  -0.00400
O35       0.02200   0.01700   0.01700  -0.00100  -0.00200  -0.00100
O36       0.01500   0.02600   0.03100  -0.00400  -0.00100   0.01100
O39       0.02100   0.02300   0.01800   0.00400  -0.00200  -0.00500
N42       0.01600   0.01400   0.01700   0.00100   0.00500  -0.00200
C43       0.01300   0.01600   0.01400  -0.00100   0.00500  -0.00200
N44       0.01200   0.01400   0.01600   0.00100   0.00600  -0.00400
C45       0.01700   0.01800   0.01500   0.00100   0.00200  -0.00200
C46       0.01100   0.01300   0.01700  -0.00200   0.00000  -0.00300
C47       0.01900   0.02200   0.01700  -0.00200   0.00300  -0.00100
C50       0.01500   0.01600   0.01700  -0.00400   0.00200  -0.00300
C53       0.01500   0.01600   0.01500  -0.00100   0.00400  -0.00600
C56       0.01700   0.01600   0.01200  -0.00100   0.00300  -0.00300
Eu57      0.01051   0.01033   0.00798   0.00150   0.00058   0.00060
O58       0.01100   0.01400   0.01400  -0.00110   0.00300  -0.00300
O59       0.01400   0.01900   0.01200  -0.00200  -0.00400   0.00500
O60       0.01300   0.01300   0.01500  -0.00260  -0.00100   0.00340
O61       0.02000   0.01800   0.01400  -0.00400  -0.00300   0.00500
O62       0.01500   0.02700   0.01900   0.00200   0.00100   0.00400
O63       0.02200   0.01700   0.01700   0.00100  -0.00200   0.00100
O64       0.01500   0.02600   0.03100   0.00400  -0.00100  -0.01100
O67       0.02100   0.02300   0.01800  -0.00400  -0.00200   0.00500
N70       0.01600   0.01400   0.01700  -0.00100   0.00500   0.00200
C71       0.01300   0.01600   0.01400   0.00100   0.00500   0.00200
N72       0.01200   0.01400   0.01600  -0.00100   0.00600   0.00400
C73       0.01700   0.01800   0.01500  -0.00100   0.00200   0.00200
C74       0.01100   0.01300   0.01700   0.00200   0.00000   0.00300
C75       0.01900   0.02200   0.01700   0.00200   0.00300   0.00100
C78       0.01500   0.01600   0.01700   0.00400   0.00200   0.00300
C81       0.01500   0.01600   0.01500   0.00100   0.00400   0.00600
C84       0.01700   0.01600   0.01200   0.00100   0.00300   0.00300
Eu85      0.01051   0.01033   0.00798   0.00150   0.00058   0.00060
O86       0.01100   0.01400   0.01400  -0.00110   0.00300  -0.00300
O87       0.01400   0.01900   0.01200  -0.00200  -0.00400   0.00500
O88       0.01300   0.01300   0.01500  -0.00260  -0.00100   0.00340
O89       0.02000   0.01800   0.01400  -0.00400  -0.00300   0.00500
O90       0.01500   0.02700   0.01900   0.00200   0.00100   0.00400
O91       0.02200   0.01700   0.01700   0.00100  -0.00200   0.00100
O92       0.01500   0.02600   0.03100   0.00400  -0.00100  -0.01100
O95       0.02100   0.02300   0.01800  -0.00400  -0.00200   0.00500
N98       0.01600   0.01400   0.01700  -0.00100   0.00500   0.00200
C99       0.01300   0.01600   0.01400   0.00100   0.00500   0.00200
N100      0.01200   0.01400   0.01600  -0.00100   0.00600   0.00400
C101      0.01700   0.01800   0.01500  -0.00100   0.00200   0.00200
C102      0.01100   0.01300   0.01700   0.00200   0.00000   0.00300
C103      0.01900   0.02200   0.01700   0.00200   0.00300   0.00100
C106      0.01500   0.01600   0.01700   0.00400   0.00200   0.00300
C109      0.01500   0.01600   0.01500   0.00100   0.00400   0.00600
C112      0.01700   0.01600   0.01200   0.00100   0.00300   0.00300
Eu113     0.01051   0.01033   0.00798  -0.00150   0.00058  -0.00060
O114      0.01100   0.01400   0.01400   0.00110   0.00300   0.00300
O115      0.01400   0.01900   0.01200   0.00200  -0.00400  -0.00500
O116      0.01300   0.01300   0.01500   0.00260  -0.00100  -0.00340
O117      0.02000   0.01800   0.01400   0.00400  -0.00300  -0.00500
O118      0.01500   0.02700   0.01900  -0.00200   0.00100  -0.00400
O119      0.02200   0.01700   0.01700  -0.00100  -0.00200  -0.00100
O120      0.01500   0.02600   0.03100  -0.00400  -0.00100   0.01100
O123      0.02100   0.02300   0.01800   0.00400  -0.00200  -0.00500
N126      0.01600   0.01400   0.01700   0.00100   0.00500  -0.00200
C127      0.01300   0.01600   0.01400  -0.00100   0.00500  -0.00200
N128      0.01200   0.01400   0.01600   0.00100   0.00600  -0.00400
C129      0.01700   0.01800   0.01500   0.00100   0.00200  -0.00200
C130      0.01100   0.01300   0.01700  -0.00200   0.00000  -0.00300
C131      0.01900   0.02200   0.01700  -0.00200   0.00300  -0.00100
C134      0.01500   0.01600   0.01700  -0.00400   0.00200  -0.00300
C137      0.01500   0.01600   0.01500  -0.00100   0.00400  -0.00600
C140      0.01700   0.01600   0.01200  -0.00100   0.00300  -0.00300
Eu141     0.01051   0.01033   0.00798  -0.00150   0.00058  -0.00060
O142      0.01100   0.01400   0.01400   0.00110   0.00300   0.00300
O143      0.01400   0.01900   0.01200   0.00200  -0.00400  -0.00500
O144      0.01300   0.01300   0.01500   0.00260  -0.00100  -0.00340
O145      0.02000   0.01800   0.01400   0.00400  -0.00300  -0.00500
O146      0.01500   0.02700   0.01900  -0.00200   0.00100  -0.00400
O147      0.02200   0.01700   0.01700  -0.00100  -0.00200  -0.00100
O148      0.01500   0.02600   0.03100  -0.00400  -0.00100   0.01100
O151      0.02100   0.02300   0.01800   0.00400  -0.00200  -0.00500
N154      0.01600   0.01400   0.01700   0.00100   0.00500  -0.00200
C155      0.01300   0.01600   0.01400  -0.00100   0.00500  -0.00200
N156      0.01200   0.01400   0.01600   0.00100   0.00600  -0.00400
C157      0.01700   0.01800   0.01500   0.00100   0.00200  -0.00200
C158      0.01100   0.01300   0.01700  -0.00200   0.00000  -0.00300
C159      0.01900   0.02200   0.01700  -0.00200   0.00300  -0.00100
C162      0.01500   0.01600   0.01700  -0.00400   0.00200  -0.00300
C165      0.01500   0.01600   0.01500  -0.00100   0.00400  -0.00600
C168      0.01700   0.01600   0.01200  -0.00100   0.00300  -0.00300
Eu169     0.01051   0.01033   0.00798   0.00150   0.00058   0.00060
O170      0.01100   0.01400   0.01400  -0.00110   0.00300  -0.00300
O171      0.01400   0.01900   0.01200  -0.00200  -0.00400   0.00500
O172      0.01300   0.01300   0.01500  -0.00260  -0.00100   0.00340
O173      0.02000   0.01800   0.01400  -0.00400  -0.00300   0.00500
O174      0.01500   0.02700   0.01900   0.00200   0.00100   0.00400
O175      0.02200   0.01700   0.01700   0.00100  -0.00200   0.00100
O176      0.01500   0.02600   0.03100   0.00400  -0.00100  -0.01100
O179      0.02100   0.02300   0.01800  -0.00400  -0.00200   0.00500
N182      0.01600   0.01400   0.01700  -0.00100   0.00500   0.00200
C183      0.01300   0.01600   0.01400   0.00100   0.00500   0.00200
N184      0.01200   0.01400   0.01600  -0.00100   0.00600   0.00400
C185      0.01700   0.01800   0.01500  -0.00100   0.00200   0.00200
C186      0.01100   0.01300   0.01700   0.00200   0.00000   0.00300
C187      0.01900   0.02200   0.01700   0.00200   0.00300   0.00100
C190      0.01500   0.01600   0.01700   0.00400   0.00200   0.00300
C193      0.01500   0.01600   0.01500   0.00100   0.00400   0.00600
C196      0.01700   0.01600   0.01200   0.00100   0.00300   0.00300
Eu197     0.01051   0.01033   0.00798   0.00150   0.00058   0.00060
O198      0.01100   0.01400   0.01400  -0.00110   0.00300  -0.00300
O199      0.01400   0.01900   0.01200  -0.00200  -0.00400   0.00500
O200      0.01300   0.01300   0.01500  -0.00260  -0.00100   0.00340
O201      0.02000   0.01800   0.01400  -0.00400  -0.00300   0.00500
O202      0.01500   0.02700   0.01900   0.00200   0.00100   0.00400
O203      0.02200   0.01700   0.01700   0.00100  -0.00200   0.00100
O204      0.01500   0.02600   0.03100   0.00400  -0.00100  -0.01100
O207      0.02100   0.02300   0.01800  -0.00400  -0.00200   0.00500
N210      0.01600   0.01400   0.01700  -0.00100   0.00500   0.00200
C211      0.01300   0.01600   0.01400   0.00100   0.00500   0.00200
N212      0.01200   0.01400   0.01600  -0.00100   0.00600   0.00400
C213      0.01700   0.01800   0.01500  -0.00100   0.00200   0.00200
C214      0.01100   0.01300   0.01700   0.00200   0.00000   0.00300
C215      0.01900   0.02200   0.01700   0.00200   0.00300   0.00100
C218      0.01500   0.01600   0.01700   0.00400   0.00200   0.00300
C221      0.01500   0.01600   0.01500   0.00100   0.00400   0.00600
C224      0.01700   0.01600   0.01200   0.00100   0.00300   0.00300
N225      0.01300   0.01400   0.01500   0.00000   0.00800   0.00000
N226      0.01500   0.01500   0.01500   0.00000   0.00400   0.00000
C227      0.01500   0.02000   0.01400   0.00000   0.00700   0.00000
N228      0.01300   0.01400   0.01500   0.00000   0.00800   0.00000
N229      0.01500   0.01500   0.01500   0.00000   0.00400   0.00000
C230      0.01500   0.02000   0.01400   0.00000   0.00700   0.00000
N231      0.01300   0.01400   0.01500   0.00000   0.00800   0.00000
N232      0.01500   0.01500   0.01500   0.00000   0.00400   0.00000
C233      0.01500   0.02000   0.01400   0.00000   0.00700   0.00000
N234      0.01300   0.01400   0.01500   0.00000   0.00800   0.00000
N235      0.01500   0.01500   0.01500   0.00000   0.00400   0.00000
C236      0.01500   0.02000   0.01400   0.00000   0.00700   0.00000
loop_
_geom_bond_atom_site_label_1
_geom_bond_atom_site_label_2
_geom_bond_distance
_geom_bond_site_symmetry_2
_ccdc_geom_bond_type
Eu1    O2      2.374   .     S
Eu1    O8      2.472   .     S
Eu1    O11     2.424   1_655 S
Eu1    O60     2.379   .     S
Eu1    O142    2.606   .     S
Eu1    O199    2.401   .     S
Eu1    O33     2.461   .     S
Eu1    O146    2.478   .     S
Eu1    O35     2.524   .     S
O2     C17     1.271   .     S
O2     Eu141   2.606   .     S
O3     C15     1.245   .     S
O3     Eu197   2.401   1_556 S
O4     C15     1.277   .     S
O4     Eu57    2.379   .     S
O5     C18     1.270   .     S
O5     Eu29    2.461   .     S
O6     C17     1.249   .     S
O6     Eu141   2.478   .     S
O7     C18     1.259   .     S
O7     Eu29    2.524   .     S
O8     H9      0.876   .     S
O8     H10     0.876   1_655 S
H10    O8      0.876   1_455 S
O11    Eu1     2.424   1_455 S
O11    H12     0.877   .     S
O11    H13     0.876   .     S
N14    C227    1.339   .     S
N14    C28     1.353   .     S
C15    C22     1.523   .     S
N16    C22     1.433   .     S
N16    C25     1.460   .     S
N16    C28     1.361   .     S
C17    C19     1.520   .     S
C18    C25     1.512   .     S
C19    N225    1.440   .     S
C19    H20     0.989   .     S
C19    H21     0.990   .     S
C22    H23     0.991   .     S
C22    H24     0.990   .     S
C25    H26     0.991   .     S
C25    H27     0.989   .     S
C28    N226    1.336   .     S
Eu29   O30     2.374   .     S
Eu29   O36     2.472   .     S
Eu29   O39     2.424   .     S
Eu29   O88     2.379   .     S
Eu29   O114    2.606   .     S
Eu29   O171    2.401   .     S
Eu29   O118    2.478   .     S
O30    C45     1.271   .     S
O30    Eu113   2.606   .     S
O31    C43     1.245   .     S
O31    Eu169   2.401   1_556 S
O32    C43     1.277   .     S
O32    Eu85    2.379   .     S
O33    C46     1.270   .     S
O34    C45     1.249   .     S
O34    Eu113   2.478   .     S
O35    C46     1.259   .     S
O36    H37     0.876   .     S
O36    H38     0.876   .     S
O39    H40     0.877   .     S
O39    H41     0.876   .     S
N42    C230    1.339   1_655 S
N42    C56     1.353   .     S
C43    C50     1.523   .     S
N44    C50     1.433   .     S
N44    C53     1.460   1_545 S
N44    C56     1.361   .     S
C45    C47     1.520   .     S
C46    C53     1.512   .     S
C47    N228    1.440   .     S
C47    H48     0.989   .     S
C47    H49     0.990   .     S
C50    H51     0.991   .     S
C50    H52     0.990   .     S
C53    N44     1.460   1_565 S
C53    H54     0.991   .     S
C53    H55     0.989   .     S
C56    N229    1.336   1_655 S
Eu57   O58     2.374   .     S
Eu57   O64     2.472   .     S
Eu57   O67     2.424   1_455 S
Eu57   O198    2.606   1_556 S
Eu57   O143    2.401   1_556 S
Eu57   O89     2.461   .     S
Eu57   O202    2.478   1_556 S
Eu57   O91     2.524   .     S
O58    C73     1.271   .     S
O58    Eu197   2.606   1_556 S
O59    C71     1.245   .     S
O59    Eu141   2.401   .     S
O60    C71     1.277   .     S
O61    C74     1.270   .     S
O61    Eu85    2.461   .     S
O62    C73     1.249   .     S
O62    Eu197   2.478   1_556 S
O63    C74     1.259   .     S
O63    Eu85    2.524   .     S
O64    H65     0.876   1_556 S
O64    H66     0.876   1_456 S
H65    O64     0.876   1_554 S
H66    O64     0.876   1_654 S
O67    Eu57    2.424   1_655 S
O67    H68     0.877   .     S
O67    H69     0.876   .     S
N70    C227    1.339   .     S
N70    C84     1.353   .     S
C71    C78     1.523   .     S
N72    C78     1.433   .     S
N72    C81     1.460   .     S
N72    C84     1.361   .     S
C73    C75     1.520   .     S
C74    C81     1.512   .     S
C75    N225    1.440   .     S
C75    H76     0.989   .     S
C75    H77     0.990   .     S
C78    H79     0.991   .     S
C78    H80     0.990   .     S
C81    H82     0.991   .     S
C81    H83     0.989   .     S
C84    N226    1.336   .     S
Eu85   O86     2.374   .     S
Eu85   O92     2.472   .     S
Eu85   O95     2.424   .     S
Eu85   O170    2.606   1_556 S
Eu85   O115    2.401   1_556 S
Eu85   O174    2.478   1_556 S
O86    C101    1.271   .     S
O86    Eu169   2.606   1_556 S
O87    C99     1.245   .     S
O87    Eu113   2.401   .     S
O88    C99     1.277   .     S
O89    C102    1.270   .     S
O90    C101    1.249   .     S
O90    Eu169   2.478   1_556 S
O91    C102    1.259   .     S
O92    H93     0.876   1_556 S
O92    H94     0.876   1_556 S
H93    O92     0.876   1_554 S
H94    O92     0.876   1_554 S
O95    H96     0.877   .     S
O95    H97     0.876   .     S
N98    C230    1.339   .     S
N98    C112    1.353   .     S
C99    C106    1.523   .     S
N100   C106    1.433   .     S
N100   C109    1.460   1_545 S
N100   C112    1.361   .     S
C101   C103    1.520   .     S
C102   C109    1.512   .     S
C103   N228    1.440   1_655 S
C103   H104    0.989   .     S
C103   H105    0.990   .     S
C106   H107    0.991   .     S
C106   H108    0.990   .     S
C109   N100    1.460   1_565 S
C109   H110    0.991   .     S
C109   H111    0.989   .     S
C112   N229    1.336   .     S
Eu113  O114    2.374   .     S
Eu113  O120    2.472   .     S
Eu113  O123    2.424   1_455 S
Eu113  O172    2.379   .     S
Eu113  O145    2.461   .     S
Eu113  O147    2.524   .     S
O114   C129    1.271   .     S
O115   C127    1.245   .     S
O115   Eu85    2.401   1_554 S
O116   C127    1.277   .     S
O116   Eu169   2.379   .     S
O117   C130    1.270   .     S
O117   Eu141   2.461   .     S
O118   C129    1.249   .     S
O119   C130    1.259   .     S
O119   Eu141   2.524   .     S
O120   H121    0.876   .     S
O120   H122    0.876   1_455 S
H122   O120    0.876   1_655 S
O123   Eu113   2.424   1_655 S
O123   H124    0.877   .     S
O123   H125    0.876   .     S
N126   C233    1.339   .     S
N126   C140    1.353   .     S
C127   C134    1.523   .     S
N128   C134    1.433   .     S
N128   C137    1.460   .     S
N128   C140    1.361   .     S
C129   C131    1.520   .     S
C130   C137    1.512   .     S
C131   N231    1.440   .     S
C131   H132    0.989   .     S
C131   H133    0.990   .     S
C134   H135    0.991   .     S
C134   H136    0.990   .     S
C137   H138    0.991   .     S
C137   H139    0.989   .     S
C140   N232    1.336   .     S
Eu141  O142    2.374   .     S
Eu141  O148    2.472   .     S
Eu141  O151    2.424   .     S
Eu141  O200    2.379   .     S
O142   C157    1.271   .     S
O143   C155    1.245   .     S
O143   Eu57    2.401   1_554 S
O144   C155    1.277   .     S
O144   Eu197   2.379   .     S
O145   C158    1.270   .     S
O146   C157    1.249   .     S
O147   C158    1.259   .     S
O148   H149    0.876   .     S
O148   H150    0.876   .     S
O151   H152    0.877   .     S
O151   H153    0.876   .     S
N154   C236    1.339   .     S
N154   C168    1.353   .     S
C155   C162    1.523   .     S
N156   C162    1.433   .     S
N156   C165    1.460   1_565 S
N156   C168    1.361   .     S
C157   C159    1.520   .     S
C158   C165    1.512   .     S
C159   N234    1.440   1_655 S
C159   H160    0.989   .     S
C159   H161    0.990   .     S
C162   H163    0.991   .     S
C162   H164    0.990   .     S
C165   N156    1.460   1_545 S
C165   H166    0.991   .     S
C165   H167    0.989   .     S
C168   N235    1.336   .     S
Eu169  O170    2.374   .     S
Eu169  O176    2.472   .     S
Eu169  O179    2.424   1_655 S
Eu169  O86     2.606   1_554 S
Eu169  O31     2.401   1_554 S
Eu169  O201    2.461   .     S
Eu169  O90     2.478   1_554 S
Eu169  O203    2.524   .     S
O170   C185    1.271   .     S
O170   Eu85    2.606   1_554 S
O171   C183    1.245   .     S
O172   C183    1.277   .     S
O173   C186    1.270   .     S
O173   Eu197   2.461   .     S
O174   C185    1.249   .     S
O174   Eu85    2.478   1_554 S
O175   C186    1.259   .     S
O175   Eu197   2.524   .     S
O176   H177    0.876   1_554 S
O176   H178    0.876   1_654 S
H177   O176    0.876   1_556 S
H178   O176    0.876   1_456 S
O179   Eu169   2.424   1_455 S
O179   H180    0.877   .     S
O179   H181    0.876   .     S
N182   C233    1.339   .     S
N182   C196    1.353   .     S
C183   C190    1.523   .     S
N184   C190    1.433   .     S
N184   C193    1.460   .     S
N184   C196    1.361   .     S
C185   C187    1.520   .     S
C186   C193    1.512   .     S
C187   N231    1.440   .     S
C187   H188    0.989   .     S
C187   H189    0.990   .     S
C190   H191    0.991   .     S
C190   H192    0.990   .     S
C193   H194    0.991   .     S
C193   H195    0.989   .     S
C196   N232    1.336   .     S
Eu197  O198    2.374   .     S
Eu197  O204    2.472   .     S
Eu197  O207    2.424   .     S
Eu197  O58     2.606   1_554 S
Eu197  O3      2.401   1_554 S
Eu197  O62     2.478   1_554 S
O198   C213    1.271   .     S
O198   Eu57    2.606   1_554 S
O199   C211    1.245   .     S
O200   C211    1.277   .     S
O201   C214    1.270   .     S
O202   C213    1.249   .     S
O202   Eu57    2.478   1_554 S
O203   C214    1.259   .     S
O204   H205    0.876   1_554 S
O204   H206    0.876   1_554 S
H205   O204    0.876   1_556 S
H206   O204    0.876   1_556 S
O207   H208    0.877   .     S
O207   H209    0.876   .     S
N210   C236    1.339   1_655 S
N210   C224    1.353   .     S
C211   C218    1.523   .     S
N212   C218    1.433   .     S
N212   C221    1.460   1_565 S
N212   C224    1.361   .     S
C213   C215    1.520   .     S
C214   C221    1.512   .     S
C215   N234    1.440   .     S
C215   H216    0.989   .     S
C215   H217    0.990   .     S
C218   H219    0.991   .     S
C218   H220    0.990   .     S
C221   N212    1.460   1_545 S
C221   H222    0.991   .     S
C221   H223    0.989   .     S
C224   N235    1.336   1_655 S
N225   C227    1.364   .     S
N228   C103    1.440   1_455 S
N228   C230    1.364   .     S
N229   C56     1.336   1_455 S
C230   N42     1.339   1_455 S
N231   C233    1.364   .     S
N234   C159    1.440   1_455 S
N234   C236    1.364   .     S
N235   C224    1.336   1_455 S
C236   N210    1.339   1_455 S
