data_CUNNUW_FSR
_audit_creation_date              2024-06-11
_audit_creation_method            'Materials Studio'
_symmetry_space_group_name_H-M    'P1'
_symmetry_Int_Tables_number       1
_symmetry_cell_setting            triclinic
loop_
_symmetry_equiv_pos_as_xyz
  x,y,z
_cell_length_a                    7.4768
_cell_length_b                    9.1819
_cell_length_c                    12.3920
_cell_angle_alpha                 77.1130
_cell_angle_beta                  75.8530
_cell_angle_gamma                 75.1840
loop_
_atom_site_label
_atom_site_type_symbol
_atom_site_fract_x
_atom_site_fract_y
_atom_site_fract_z
_atom_site_U_iso_or_equiv
_atom_site_adp_type
_atom_site_occupancy
Mg1    Mg    0.72890   0.08193   0.62969   0.00000  Uiso   1.00
Mg2    Mg    0.78698   0.90523   0.87443   0.00000  Uiso   1.00
P3     P     0.38080   0.14046   0.84781   0.00000  Uiso   1.00
P4     P     0.13188   0.85733   0.64823   0.00000  Uiso   1.00
O5     O     0.13990   0.86440   0.52560   0.00000  Uiso   1.00
O6     O     0.47710   0.19100   0.57970   0.00000  Uiso   1.00
O7     O     0.57460   0.05820   0.79410   0.00000  Uiso   1.00
O8     O     0.93440   0.92580   0.70820   0.00000  Uiso   1.00
O9     O     0.65520   0.87470   0.61560   0.00000  Uiso   1.00
O10    O     0.35950   0.13680   0.97110   0.00000  Uiso   1.00
O11    O     0.03210   0.78490   0.92250   0.00000  Uiso   1.00
O12    O     0.68340   0.72650   0.83610   0.00000  Uiso   1.00
O13    O     0.80950   0.26450   0.66900   0.00000  Uiso   1.00
C14    C     0.33240   0.34120   0.78390   0.00000  Uiso   1.00
C15    C     0.19900   0.65610   0.70690   0.00000  Uiso   1.00
O16    O     0.19580   0.30400   0.53790   0.00000  Uiso   1.00
C17    C     0.33030   0.28610   0.59450   0.00000  Uiso   1.00
O18    O     0.32830   0.71270   0.94640   0.00000  Uiso   1.00
C19    C     0.30520   0.44920   0.85220   0.00000  Uiso   1.00
H20    H     0.33190   0.41640   0.92600   0.00000  Uiso   1.00
C21    C     0.29230   0.39360   0.67490   0.00000  Uiso   1.00
C22    C     0.24010   0.60350   0.81550   0.00000  Uiso   1.00
C23    C     0.19560   0.71120   0.89970   0.00000  Uiso   1.00
C24    C     0.22890   0.54850   0.63720   0.00000  Uiso   1.00
H25    H     0.20570   0.58170   0.56270   0.00000  Uiso   1.00
O26    O     0.84750   0.10960   0.89290   0.00000  Uiso   1.00
O27    O     0.27940   0.92940   0.67000   0.00000  Uiso   1.00
H28    H     0.26220   0.02210   0.64000   0.00000  Uiso   1.00
O29    O     0.22580   0.07910   0.82160   0.00000  Uiso   1.00
H30    H     0.23090   0.98790   0.85430   0.00000  Uiso   1.00
H31    H     0.93800   0.28100   0.62600   0.00000  Uiso   1.00
H32    H     0.76100   0.37860   0.66400   0.00000  Uiso   1.00
Mg33   Mg    0.27110   0.91807   0.37031   0.00000  Uiso   1.00
Mg34   Mg    0.21302   0.09477   0.12557   0.00000  Uiso   1.00
P35    P     0.61920   0.85954   0.15219   0.00000  Uiso   1.00
P36    P     0.86812   0.14267   0.35177   0.00000  Uiso   1.00
O37    O     0.86010   0.13560   0.47440   0.00000  Uiso   1.00
O38    O     0.52290   0.80900   0.42030   0.00000  Uiso   1.00
O39    O     0.42540   0.94180   0.20590   0.00000  Uiso   1.00
O40    O     0.06560   0.07420   0.29180   0.00000  Uiso   1.00
O41    O     0.34480   0.12530   0.38440   0.00000  Uiso   1.00
O42    O     0.64050   0.86320   0.02890   0.00000  Uiso   1.00
O43    O     0.96790   0.21510   0.07750   0.00000  Uiso   1.00
O44    O     0.31660   0.27350   0.16390   0.00000  Uiso   1.00
O45    O     0.19050   0.73550   0.33100   0.00000  Uiso   1.00
C46    C     0.66760   0.65880   0.21610   0.00000  Uiso   1.00
C47    C     0.80100   0.34390   0.29310   0.00000  Uiso   1.00
O48    O     0.80420   0.69600   0.46210   0.00000  Uiso   1.00
C49    C     0.66970   0.71390   0.40550   0.00000  Uiso   1.00
O50    O     0.67170   0.28730   0.05360   0.00000  Uiso   1.00
C51    C     0.69480   0.55080   0.14780   0.00000  Uiso   1.00
H52    H     0.66810   0.58360   0.07400   0.00000  Uiso   1.00
C53    C     0.70770   0.60640   0.32510   0.00000  Uiso   1.00
C54    C     0.75990   0.39650   0.18450   0.00000  Uiso   1.00
C55    C     0.80440   0.28880   0.10030   0.00000  Uiso   1.00
C56    C     0.77110   0.45150   0.36280   0.00000  Uiso   1.00
H57    H     0.79430   0.41830   0.43730   0.00000  Uiso   1.00
O58    O     0.15250   0.89040   0.10710   0.00000  Uiso   1.00
O59    O     0.72060   0.07060   0.33000   0.00000  Uiso   1.00
H60    H     0.73780   0.97790   0.36000   0.00000  Uiso   1.00
O61    O     0.77420   0.92090   0.17840   0.00000  Uiso   1.00
H62    H     0.76910   0.01210   0.14570   0.00000  Uiso   1.00
H63    H     0.06200   0.71900   0.37400   0.00000  Uiso   1.00
H64    H     0.23900   0.62140   0.33600   0.00000  Uiso   1.00
loop_
_geom_bond_atom_site_label_1
_geom_bond_atom_site_label_2
_geom_bond_distance
_geom_bond_site_symmetry_2
_ccdc_geom_bond_type
Mg1    O6      2.064   .     S
Mg1    O7      2.076   .     S
Mg1    O9      2.165   1_545 S
Mg1    O13     2.106   .     S
Mg1    O37     1.952   .     S
Mg1    O8      2.084   1_545 S
Mg2    O7      2.120   1_565 S
Mg2    O12     2.167   .     S
Mg2    O26     2.111   1_565 S
Mg2    O42     1.968   1_556 S
Mg2    O11     2.034   1_655 S
Mg2    O8      2.078   .     S
P3     O7      1.519   .     S
P3     O10     1.491   .     S
P3     C14     1.818   .     S
P3     O29     1.538   .     S
P4     O5      1.493   .     S
P4     O8      1.525   1_455 S
P4     C15     1.816   .     S
P4     O27     1.525   .     S
O5     Mg33    1.952   .     S
O6     C17     1.218   .     S
O7     Mg2     2.120   1_545 S
O8     P4      1.525   1_655 S
O8     Mg1     2.084   1_565 S
O9     Mg1     2.165   1_565 S
O10    Mg34    1.968   1_556 S
O11    C23     1.235   .     S
O11    Mg2     2.034   1_455 S
O13    H31     1.009   .     S
O13    H32     1.010   .     S
C14    C19     1.389   .     S
C14    C21     1.407   .     S
C15    C22     1.405   .     S
C15    C24     1.395   .     S
O16    C17     1.319   .     S
C17    C21     1.485   .     S
O18    C23     1.269   .     S
C19    H20     0.950   .     S
C19    C22     1.385   .     S
C21    C24     1.390   .     S
C22    C23     1.516   .     S
C24    H25     0.949   .     S
O26    Mg2     2.111   1_545 S
O27    H28     0.840   1_565 S
H28    O27     0.840   1_545 S
O29    H30     0.841   1_545 S
H30    O29     0.841   1_565 S
Mg33   O38     2.064   .     S
Mg33   O39     2.076   .     S
Mg33   O41     2.165   1_565 S
Mg33   O45     2.106   .     S
Mg33   O40     2.084   1_565 S
Mg34   O39     2.120   1_545 S
Mg34   O44     2.167   .     S
Mg34   O58     2.111   1_545 S
Mg34   O10     1.968   1_554 S
Mg34   O43     2.034   1_455 S
Mg34   O40     2.078   .     S
P35    O39     1.519   .     S
P35    O42     1.491   .     S
P35    C46     1.818   .     S
P35    O61     1.538   .     S
P36    O37     1.493   .     S
P36    O40     1.525   1_655 S
P36    C47     1.816   .     S
P36    O59     1.525   .     S
O38    C49     1.218   .     S
O39    Mg34    2.120   1_565 S
O40    P36     1.525   1_455 S
O40    Mg33    2.084   1_545 S
O41    Mg33    2.165   1_545 S
O42    Mg2     1.968   1_554 S
O43    C55     1.235   .     S
O43    Mg34    2.034   1_655 S
O45    H63     1.009   .     S
O45    H64     1.010   .     S
C46    C51     1.389   .     S
C46    C53     1.407   .     S
C47    C54     1.405   .     S
C47    C56     1.395   .     S
O48    C49     1.319   .     S
C49    C53     1.485   .     S
O50    C55     1.269   .     S
C51    H52     0.950   .     S
C51    C54     1.385   .     S
C53    C56     1.390   .     S
C54    C55     1.516   .     S
C56    H57     0.949   .     S
O58    Mg34    2.111   1_565 S
O59    H60     0.840   1_545 S
H60    O59     0.840   1_565 S
O61    H62     0.841   1_565 S
H62    O61     0.841   1_545 S
