data_DEKVIC_FSR
_audit_creation_date              2024-06-11
_audit_creation_method            'Materials Studio'
_symmetry_space_group_name_H-M    'P1'
_symmetry_Int_Tables_number       1
_symmetry_cell_setting            triclinic
loop_
_symmetry_equiv_pos_as_xyz
  x,y,z
_cell_length_a                    15.0377
_cell_length_b                    15.0377
_cell_length_c                    11.9703
_cell_angle_alpha                 90.0000
_cell_angle_beta                  90.0000
_cell_angle_gamma                 90.0000
loop_
_atom_site_label
_atom_site_type_symbol
_atom_site_fract_x
_atom_site_fract_y
_atom_site_fract_z
_atom_site_U_iso_or_equiv
_atom_site_adp_type
_atom_site_occupancy
O1     O     0.62040   0.38110   0.60990   0.00630  Uiso   1.00
O2     O     0.59830   0.28790   0.74680   0.00630  Uiso   1.00
C3     C     0.59010   0.36110   0.70200   0.00630  Uiso   1.00
C4     C     0.53990   0.43036   0.76370   0.00630  Uiso   1.00
C5     C     0.53990   0.43036   0.88012   0.00630  Uiso   1.00
H6     H     0.56280   0.39040   0.91350   0.00760  Uiso   1.00
O7     O     0.12040   0.88110   0.10990   0.00630  Uiso   1.00
O8     O     0.09830   0.78790   0.24680   0.00630  Uiso   1.00
C9     C     0.09010   0.86110   0.20200   0.00630  Uiso   1.00
C10    C     0.03990   0.93036   0.26370   0.00630  Uiso   1.00
C11    C     0.03990   0.93036   0.38012   0.00630  Uiso   1.00
H12    H     0.06280   0.89040   0.41350   0.00760  Uiso   1.00
O13    O     0.87960   0.11890   0.10990   0.00630  Uiso   1.00
O14    O     0.90170   0.21210   0.24680   0.00630  Uiso   1.00
C15    C     0.90990   0.13890   0.20200   0.00630  Uiso   1.00
C16    C     0.96010   0.06964   0.26370   0.00630  Uiso   1.00
C17    C     0.96010   0.06964   0.38012   0.00630  Uiso   1.00
H18    H     0.93720   0.10960   0.41350   0.00760  Uiso   1.00
O19    O     0.37960   0.61890   0.60990   0.00630  Uiso   1.00
O20    O     0.40170   0.71210   0.74680   0.00630  Uiso   1.00
C21    C     0.40990   0.63890   0.70200   0.00630  Uiso   1.00
C22    C     0.46010   0.56964   0.76370   0.00630  Uiso   1.00
C23    C     0.46010   0.56964   0.88012   0.00630  Uiso   1.00
H24    H     0.43720   0.60960   0.91350   0.00760  Uiso   1.00
O25    O     0.61890   0.12040   0.85990   0.00630  Uiso   1.00
O26    O     0.71210   0.09830   0.99680   0.00630  Uiso   1.00
C27    C     0.63890   0.09010   0.95200   0.00630  Uiso   1.00
C28    C     0.56964   0.03990   0.01370   0.00630  Uiso   1.00
C29    C     0.56964   0.03990   0.13012   0.00630  Uiso   1.00
H30    H     0.60960   0.06280   0.16350   0.00760  Uiso   1.00
O31    O     0.11890   0.62040   0.35990   0.00630  Uiso   1.00
O32    O     0.21210   0.59830   0.49680   0.00630  Uiso   1.00
C33    C     0.13890   0.59010   0.45200   0.00630  Uiso   1.00
C34    C     0.06964   0.53990   0.51370   0.00630  Uiso   1.00
C35    C     0.06964   0.53990   0.63012   0.00630  Uiso   1.00
H36    H     0.10960   0.56280   0.66350   0.00760  Uiso   1.00
O37    O     0.88110   0.37960   0.35990   0.00630  Uiso   1.00
O38    O     0.78790   0.40170   0.49680   0.00630  Uiso   1.00
C39    C     0.86110   0.40990   0.45200   0.00630  Uiso   1.00
C40    C     0.93036   0.46010   0.51370   0.00630  Uiso   1.00
C41    C     0.93036   0.46010   0.63012   0.00630  Uiso   1.00
H42    H     0.89040   0.43720   0.66350   0.00760  Uiso   1.00
O43    O     0.38110   0.87960   0.85990   0.00630  Uiso   1.00
O44    O     0.28790   0.90170   0.99680   0.00630  Uiso   1.00
C45    C     0.36110   0.90990   0.95200   0.00630  Uiso   1.00
C46    C     0.43036   0.96010   0.01370   0.00630  Uiso   1.00
C47    C     0.43036   0.96010   0.13012   0.00630  Uiso   1.00
H48    H     0.39040   0.93720   0.16350   0.00760  Uiso   1.00
O49    O     0.87960   0.38110   0.14010   0.00630  Uiso   1.00
O50    O     0.90170   0.28790   0.00320   0.00630  Uiso   1.00
C51    C     0.90990   0.36110   0.04800   0.00630  Uiso   1.00
C52    C     0.96010   0.43036   0.98630   0.00630  Uiso   1.00
C53    C     0.96010   0.43036   0.86988   0.00630  Uiso   1.00
H54    H     0.93720   0.39040   0.83650   0.00760  Uiso   1.00
O55    O     0.37960   0.88110   0.64010   0.00630  Uiso   1.00
O56    O     0.40170   0.78790   0.50320   0.00630  Uiso   1.00
C57    C     0.40990   0.86110   0.54800   0.00630  Uiso   1.00
C58    C     0.46010   0.93036   0.48630   0.00630  Uiso   1.00
C59    C     0.46010   0.93036   0.36988   0.00630  Uiso   1.00
H60    H     0.43720   0.89040   0.33650   0.00760  Uiso   1.00
O61    O     0.62040   0.11890   0.64010   0.00630  Uiso   1.00
O62    O     0.59830   0.21210   0.50320   0.00630  Uiso   1.00
C63    C     0.59010   0.13890   0.54800   0.00630  Uiso   1.00
C64    C     0.53990   0.06964   0.48630   0.00630  Uiso   1.00
C65    C     0.53990   0.06964   0.36988   0.00630  Uiso   1.00
H66    H     0.56280   0.10960   0.33650   0.00760  Uiso   1.00
O67    O     0.12040   0.61890   0.14010   0.00630  Uiso   1.00
O68    O     0.09830   0.71210   0.00320   0.00630  Uiso   1.00
C69    C     0.09010   0.63890   0.04800   0.00630  Uiso   1.00
C70    C     0.03990   0.56964   0.98630   0.00630  Uiso   1.00
C71    C     0.03990   0.56964   0.86988   0.00630  Uiso   1.00
H72    H     0.06280   0.60960   0.83650   0.00760  Uiso   1.00
O73    O     0.88110   0.12040   0.89010   0.00630  Uiso   1.00
O74    O     0.78790   0.09830   0.75320   0.00630  Uiso   1.00
C75    C     0.86110   0.09010   0.79800   0.00630  Uiso   1.00
C76    C     0.93036   0.03990   0.73630   0.00630  Uiso   1.00
C77    C     0.93036   0.03990   0.61988   0.00630  Uiso   1.00
H78    H     0.89040   0.06280   0.58650   0.00760  Uiso   1.00
O79    O     0.38110   0.62040   0.39010   0.00630  Uiso   1.00
O80    O     0.28790   0.59830   0.25320   0.00630  Uiso   1.00
C81    C     0.36110   0.59010   0.29800   0.00630  Uiso   1.00
C82    C     0.43036   0.53990   0.23630   0.00630  Uiso   1.00
C83    C     0.43036   0.53990   0.11988   0.00630  Uiso   1.00
H84    H     0.39040   0.56280   0.08650   0.00760  Uiso   1.00
O85    O     0.61890   0.37960   0.39010   0.00630  Uiso   1.00
O86    O     0.71210   0.40170   0.25320   0.00630  Uiso   1.00
C87    C     0.63890   0.40990   0.29800   0.00630  Uiso   1.00
C88    C     0.56964   0.46010   0.23630   0.00630  Uiso   1.00
C89    C     0.56964   0.46010   0.11988   0.00630  Uiso   1.00
H90    H     0.60960   0.43720   0.08650   0.00760  Uiso   1.00
O91    O     0.11890   0.87960   0.89010   0.00630  Uiso   1.00
O92    O     0.21210   0.90170   0.75320   0.00630  Uiso   1.00
C93    C     0.13890   0.90990   0.79800   0.00630  Uiso   1.00
C94    C     0.06964   0.96010   0.73630   0.00630  Uiso   1.00
C95    C     0.06964   0.96010   0.61988   0.00630  Uiso   1.00
H96    H     0.10960   0.93720   0.58650   0.00760  Uiso   1.00
Cr97   Cr    0.69168   0.30832   0.50000   0.00630  Uiso   1.00
Cr98   Cr    0.19168   0.80832   0.00000   0.00630  Uiso   1.00
Cr99   Cr    0.80832   0.19168   0.00000   0.00630  Uiso   1.00
Cr100  Cr    0.30832   0.69168   0.50000   0.00630  Uiso   1.00
Cr101  Cr    0.69168   0.19168   0.75000   0.00630  Uiso   1.00
Cr102  Cr    0.19168   0.69168   0.25000   0.00630  Uiso   1.00
Cr103  Cr    0.80832   0.30832   0.25000   0.00630  Uiso   1.00
Cr104  Cr    0.30832   0.80832   0.75000   0.00630  Uiso   1.00
O105   O     0.75070   0.25000   0.62500   0.00630  Uiso   1.00
H106   H     0.81100   0.25000   0.62500   0.00760  Uiso   1.00
O107   O     0.25070   0.75000   0.12500   0.00630  Uiso   1.00
H108   H     0.31100   0.75000   0.12500   0.00760  Uiso   1.00
O109   O     0.74930   0.25000   0.12500   0.00630  Uiso   1.00
H110   H     0.68900   0.25000   0.12500   0.00760  Uiso   1.00
O111   O     0.24930   0.75000   0.62500   0.00630  Uiso   1.00
H112   H     0.18900   0.75000   0.62500   0.00760  Uiso   1.00
O113   O     0.75000   0.25070   0.87500   0.00630  Uiso   1.00
H114   H     0.75000   0.31100   0.87500   0.00760  Uiso   1.00
O115   O     0.25000   0.75070   0.37500   0.00630  Uiso   1.00
H116   H     0.25000   0.81100   0.37500   0.00760  Uiso   1.00
O117   O     0.75000   0.24930   0.37500   0.00630  Uiso   1.00
H118   H     0.75000   0.18900   0.37500   0.00760  Uiso   1.00
O119   O     0.25000   0.74930   0.87500   0.00630  Uiso   1.00
H120   H     0.25000   0.68900   0.87500   0.00760  Uiso   1.00
C121   C     0.50000   0.50000   0.70550   0.00630  Uiso   1.00
C122   C     0.50000   0.50000   0.93833   0.00630  Uiso   1.00
H123   H     0.50000   0.50000   0.63870   0.00760  Uiso   1.00
C124   C     0.00000   0.00000   0.20550   0.00630  Uiso   1.00
C125   C     0.00000   0.00000   0.43833   0.00630  Uiso   1.00
H126   H     0.00000   0.00000   0.13870   0.00760  Uiso   1.00
C127   C     0.50000  -0.00000   0.95550   0.00630  Uiso   1.00
C128   C     0.50000  -0.00000   0.18833   0.00630  Uiso   1.00
H129   H     0.50000  -0.00000   0.88870   0.00760  Uiso   1.00
C130   C    -0.00000   0.50000   0.45550   0.00630  Uiso   1.00
C131   C    -0.00000   0.50000   0.68833   0.00630  Uiso   1.00
H132   H    -0.00000   0.50000   0.38870   0.00760  Uiso   1.00
C133   C     0.00000   0.50000   0.04450   0.00630  Uiso   1.00
C134   C     0.00000   0.50000   0.81167   0.00630  Uiso   1.00
H135   H     0.00000   0.50000   0.11130   0.00760  Uiso   1.00
C136   C     0.50000   0.00000   0.54450   0.00630  Uiso   1.00
C137   C     0.50000   0.00000   0.31167   0.00630  Uiso   1.00
H138   H     0.50000   0.00000   0.61130   0.00760  Uiso   1.00
C139   C    -0.00000  -0.00000   0.79450   0.00630  Uiso   1.00
C140   C    -0.00000  -0.00000   0.56167   0.00630  Uiso   1.00
H141   H    -0.00000  -0.00000   0.86130   0.00760  Uiso   1.00
C142   C     0.50000   0.50000   0.29450   0.00630  Uiso   1.00
C143   C     0.50000   0.50000   0.06167   0.00630  Uiso   1.00
H144   H     0.50000   0.50000   0.36130   0.00760  Uiso   1.00
loop_
_geom_bond_atom_site_label_1
_geom_bond_atom_site_label_2
_geom_bond_distance
_geom_bond_site_symmetry_2
_ccdc_geom_bond_type
O1     Cr97    2.019   .     S
O1     C3      1.230   .     S
O2     C3      1.231   .     S
O2     Cr101   2.017   .     S
C3     C4      1.483   .     S
C4     C121    1.394   .     S
C4     C5      1.394   .     S
C5     C122    1.394   .     S
C5     H6      0.800   .     S
O7     Cr98    2.019   .     S
O7     C9      1.230   .     S
O8     C9      1.231   .     S
O8     Cr102   2.017   .     S
C9     C10     1.483   .     S
C10    C124    1.394   1_565 S
C10    C11     1.394   .     S
C11    C125    1.394   1_565 S
C11    H12     0.800   .     S
O13    Cr99    2.019   .     S
O13    C15     1.230   .     S
O14    C15     1.231   .     S
O14    Cr103   2.017   .     S
C15    C16     1.483   .     S
C16    C124    1.394   1_655 S
C16    C17     1.394   .     S
C17    C125    1.394   1_655 S
C17    H18     0.800   .     S
O19    Cr100   2.019   .     S
O19    C21     1.230   .     S
O20    C21     1.231   .     S
O20    Cr104   2.017   .     S
C21    C22     1.483   .     S
C22    C121    1.394   .     S
C22    C23     1.394   .     S
C23    C122    1.394   .     S
C23    H24     0.800   .     S
O25    Cr101   2.019   .     S
O25    C27     1.230   .     S
O26    C27     1.231   .     S
O26    Cr99    2.017   1_556 S
C27    C28     1.483   1_556 S
C28    C27     1.483   1_554 S
C28    C127    1.394   1_554 S
C28    C29     1.394   .     S
C29    C128    1.394   .     S
C29    H30     0.800   .     S
O31    Cr102   2.019   .     S
O31    C33     1.230   .     S
O32    C33     1.231   .     S
O32    Cr100   2.017   .     S
C33    C34     1.483   .     S
C34    C130    1.394   .     S
C34    C35     1.394   .     S
C35    C131    1.394   .     S
C35    H36     0.800   .     S
O37    Cr103   2.019   .     S
O37    C39     1.230   .     S
O38    C39     1.231   .     S
O38    Cr97    2.017   .     S
C39    C40     1.483   .     S
C40    C130    1.394   1_655 S
C40    C41     1.394   .     S
C41    C131    1.394   1_655 S
C41    H42     0.800   .     S
O43    Cr104   2.019   .     S
O43    C45     1.230   .     S
O44    C45     1.231   .     S
O44    Cr98    2.017   1_556 S
C45    C46     1.483   1_556 S
C46    C45     1.483   1_554 S
C46    C127    1.394   1_564 S
C46    C47     1.394   .     S
C47    C128    1.394   1_565 S
C47    H48     0.800   .     S
O49    Cr103   2.019   .     S
O49    C51     1.230   .     S
O50    C51     1.231   .     S
O50    Cr99    2.017   .     S
C51    C52     1.483   1_554 S
C52    C51     1.483   1_556 S
C52    C133    1.394   1_656 S
C52    C53     1.394   .     S
C53    C134    1.394   1_655 S
C53    H54     0.800   .     S
O55    Cr104   2.019   .     S
O55    C57     1.230   .     S
O56    C57     1.231   .     S
O56    Cr100   2.017   .     S
C57    C58     1.483   .     S
C58    C136    1.394   1_565 S
C58    C59     1.394   .     S
C59    C137    1.394   1_565 S
C59    H60     0.800   .     S
O61    Cr101   2.019   .     S
O61    C63     1.230   .     S
O62    C63     1.231   .     S
O62    Cr97    2.017   .     S
C63    C64     1.483   .     S
C64    C136    1.394   .     S
C64    C65     1.394   .     S
C65    C137    1.394   .     S
C65    H66     0.800   .     S
O67    Cr102   2.019   .     S
O67    C69     1.230   .     S
O68    C69     1.231   .     S
O68    Cr98    2.017   .     S
C69    C70     1.483   1_554 S
C70    C69     1.483   1_556 S
C70    C133    1.394   1_556 S
C70    C71     1.394   .     S
C71    C134    1.394   .     S
C71    H72     0.800   .     S
O73    Cr99    2.019   1_556 S
O73    C75     1.230   .     S
O74    C75     1.231   .     S
O74    Cr101   2.017   .     S
C75    C76     1.483   .     S
C76    C139    1.394   1_655 S
C76    C77     1.394   .     S
C77    C140    1.394   1_655 S
C77    H78     0.800   .     S
O79    Cr100   2.019   .     S
O79    C81     1.230   .     S
O80    C81     1.231   .     S
O80    Cr102   2.017   .     S
C81    C82     1.483   .     S
C82    C142    1.394   .     S
C82    C83     1.394   .     S
C83    C143    1.394   .     S
C83    H84     0.800   .     S
O85    Cr97    2.019   .     S
O85    C87     1.230   .     S
O86    C87     1.231   .     S
O86    Cr103   2.017   .     S
C87    C88     1.483   .     S
C88    C142    1.394   .     S
C88    C89     1.394   .     S
C89    C143    1.394   .     S
C89    H90     0.800   .     S
O91    Cr98    2.019   1_556 S
O91    C93     1.230   .     S
O92    C93     1.231   .     S
O92    Cr104   2.017   .     S
C93    C94     1.483   .     S
C94    C139    1.394   1_565 S
C94    C95     1.394   .     S
C95    C140    1.394   1_565 S
C95    H96     0.800   .     S
Cr97   O105    1.948   .     S
Cr97   O117    1.948   .     S
Cr98   O107    1.948   .     S
Cr98   O119    1.948   1_554 S
Cr98   O91     2.019   1_554 S
Cr98   O44     2.017   1_554 S
Cr99   O109    1.948   .     S
Cr99   O113    1.948   1_554 S
Cr99   O73     2.019   1_554 S
Cr99   O26     2.017   1_554 S
Cr100  O111    1.948   .     S
Cr100  O115    1.948   .     S
Cr101  O113    1.948   .     S
Cr101  O105    1.948   .     S
Cr102  O115    1.948   .     S
Cr102  O107    1.948   .     S
Cr103  O117    1.948   .     S
Cr103  O109    1.948   .     S
Cr104  O119    1.948   .     S
Cr104  O111    1.948   .     S
O105   H106    0.907   .     S
O107   H108    0.907   .     S
O109   H110    0.907   .     S
O111   H112    0.907   .     S
O113   Cr99    1.948   1_556 S
O113   H114    0.907   .     S
O115   H116    0.907   .     S
O117   H118    0.907   .     S
O119   Cr98    1.948   1_556 S
O119   H120    0.907   .     S
C121   H123    0.800   .     S
C122   C143    1.476   1_556 S
C124   C16     1.394   1_455 S
C124   C10     1.394   1_545 S
C124   H126    0.800   .     S
C125   C17     1.394   1_455 S
C125   C11     1.394   1_545 S
C125   C140    1.476   .     S
C127   C28     1.394   1_556 S
C127   C46     1.394   1_546 S
C127   H129    0.800   .     S
C128   C47     1.394   1_545 S
C128   C137    1.476   .     S
C130   C40     1.394   1_455 S
C130   H132    0.800   .     S
C131   C41     1.394   1_455 S
C131   C134    1.476   .     S
C133   C52     1.394   1_454 S
C133   C70     1.394   1_554 S
C133   H135    0.800   .     S
C134   C53     1.394   1_455 S
C136   C58     1.394   1_545 S
C136   H138    0.800   .     S
C137   C59     1.394   1_545 S
C139   C76     1.394   1_455 S
C139   C94     1.394   1_545 S
C139   H141    0.800   .     S
C140   C77     1.394   1_455 S
C140   C95     1.394   1_545 S
C142   H144    0.800   .     S
C143   C122    1.476   1_554 S
