data_DELTEX_FSR
_audit_creation_date              2024-06-11
_audit_creation_method            'Materials Studio'
_symmetry_space_group_name_H-M    'P1'
_symmetry_Int_Tables_number       1
_symmetry_cell_setting            triclinic
loop_
_symmetry_equiv_pos_as_xyz
  x,y,z
_cell_length_a                    10.3753
_cell_length_b                    9.5967
_cell_length_c                    10.9622
_cell_angle_alpha                 90.0000
_cell_angle_beta                  115.1370
_cell_angle_gamma                 90.0000
loop_
_atom_site_label
_atom_site_type_symbol
_atom_site_fract_x
_atom_site_fract_y
_atom_site_fract_z
_atom_site_U_iso_or_equiv
_atom_site_adp_type
_atom_site_occupancy
Fe1    Fe    0.56344   0.41798   0.91616   0.00000  Uiso   1.00
P2     P     0.43434   0.55928   0.11878   0.00000  Uiso   1.00
P3     P     0.75936   0.35717   0.73361   0.00000  Uiso   1.00
O4     O     0.27390   0.56060   0.09500   0.00000  Uiso   1.00
O5     O     0.48440   0.70290   0.10180   0.00000  Uiso   1.00
O6     O     0.45130   0.44830   0.02910   0.00000  Uiso   1.00
O7     O     0.59660   0.64260   0.92160   0.00000  Uiso   1.00
H8     H     0.57580   0.67930   0.98370   0.00000  Uiso   1.00
H9     H     0.68700   0.65980   0.94830   0.00000  Uiso   1.00
O10    O     0.91830   0.40380   0.79010   0.00000  Uiso   1.00
H11    H     0.92590   0.48600   0.81870   0.00000  Uiso   1.00
O12    O     0.68380   0.42350   0.80890   0.00000  Uiso   1.00
N13    N     0.36040   0.44440   0.73690   0.00000  Uiso   1.00
O14    O     0.75790   0.19940   0.73110   0.00000  Uiso   1.00
N15    N     0.75560   0.39360   0.10690   0.00000  Uiso   1.00
C16    C     0.53120   0.50560   0.29300   0.00000  Uiso   1.00
C17    C     0.67650   0.41420   0.56080   0.00000  Uiso   1.00
C18    C     0.71270   0.54040   0.51960   0.00000  Uiso   1.00
H19    H     0.78670   0.59630   0.58250   0.00000  Uiso   1.00
C20    C     0.64020   0.58430   0.38630   0.00000  Uiso   1.00
H21    H     0.66620   0.66980   0.35910   0.00000  Uiso   1.00
C22    C     0.86650   0.47680   0.12680   0.00000  Uiso   1.00
H23    H     0.86500   0.52870   0.05240   0.00000  Uiso   1.00
C24    C     0.23530   0.40040   0.73190   0.00000  Uiso   1.00
H25    H     0.23110   0.37510   0.81390   0.00000  Uiso   1.00
C26    C     0.49520   0.37970   0.33420   0.00000  Uiso   1.00
H27    H     0.42110   0.32410   0.27100   0.00000  Uiso   1.00
C28    C     0.11620   0.42490   0.49140   0.00000  Uiso   1.00
C29    C     0.24490   0.47400   0.49690   0.00000  Uiso   1.00
H30    H     0.25210   0.50100   0.41670   0.00000  Uiso   1.00
C31    C     0.98300   0.49130   0.24990   0.00000  Uiso   1.00
H32    H     0.05750   0.55420   0.25990   0.00000  Uiso   1.00
C33    C     0.56680   0.33460   0.46700   0.00000  Uiso   1.00
H34    H     0.54070   0.24900   0.49380   0.00000  Uiso   1.00
C35    C     0.36240   0.48320   0.62030   0.00000  Uiso   1.00
H36    H     0.44870   0.51880   0.62220   0.00000  Uiso   1.00
C37    C     0.76200   0.31740   0.21240   0.00000  Uiso   1.00
H38    H     0.68500   0.25680   0.20000   0.00000  Uiso   1.00
C39    C     0.87630   0.32360   0.33850   0.00000  Uiso   1.00
H40    H     0.87680   0.26740   0.41010   0.00000  Uiso   1.00
C41    C     0.11210   0.39010   0.61330   0.00000  Uiso   1.00
H42    H     0.02570   0.35960   0.61490   0.00000  Uiso   1.00
C43    C     0.98940   0.41180   0.35970   0.00000  Uiso   1.00
H44    H     0.24700   0.60900   0.14100   0.00000  Uiso   1.00
Fe45   Fe    0.43656   0.91798   0.08384   0.00000  Uiso   1.00
P46    P     0.56566   0.05928   0.88122   0.00000  Uiso   1.00
P47    P     0.24064   0.85717   0.26639   0.00000  Uiso   1.00
O48    O     0.72610   0.06060   0.90500   0.00000  Uiso   1.00
O49    O     0.51560   0.20290   0.89820   0.00000  Uiso   1.00
O50    O     0.54870   0.94830   0.97090   0.00000  Uiso   1.00
O51    O     0.40340   0.14260   0.07840   0.00000  Uiso   1.00
H52    H     0.42420   0.17930   0.01630   0.00000  Uiso   1.00
H53    H     0.31300   0.15980   0.05170   0.00000  Uiso   1.00
O54    O     0.08170   0.90380   0.20990   0.00000  Uiso   1.00
H55    H     0.07410   0.98600   0.18130   0.00000  Uiso   1.00
O56    O     0.31620   0.92350   0.19110   0.00000  Uiso   1.00
N57    N     0.63960   0.94440   0.26310   0.00000  Uiso   1.00
O58    O     0.24210   0.69940   0.26890   0.00000  Uiso   1.00
N59    N     0.24440   0.89360   0.89310   0.00000  Uiso   1.00
C60    C     0.46880   0.00560   0.70700   0.00000  Uiso   1.00
C61    C     0.32350   0.91420   0.43920   0.00000  Uiso   1.00
C62    C     0.28730   0.04040   0.48040   0.00000  Uiso   1.00
H63    H     0.21330   0.09630   0.41750   0.00000  Uiso   1.00
C64    C     0.35980   0.08430   0.61370   0.00000  Uiso   1.00
H65    H     0.33380   0.16980   0.64090   0.00000  Uiso   1.00
C66    C     0.13350   0.97680   0.87320   0.00000  Uiso   1.00
H67    H     0.13500   0.02870   0.94760   0.00000  Uiso   1.00
C68    C     0.76470   0.90040   0.26810   0.00000  Uiso   1.00
H69    H     0.76890   0.87510   0.18610   0.00000  Uiso   1.00
C70    C     0.50480   0.87970   0.66580   0.00000  Uiso   1.00
H71    H     0.57890   0.82410   0.72900   0.00000  Uiso   1.00
C72    C     0.88380   0.92490   0.50860   0.00000  Uiso   1.00
C73    C     0.75510   0.97400   0.50310   0.00000  Uiso   1.00
H74    H     0.74790   0.00100   0.58330   0.00000  Uiso   1.00
C75    C     0.01700   0.99130   0.75010   0.00000  Uiso   1.00
H76    H     0.94250   0.05420   0.74010   0.00000  Uiso   1.00
C77    C     0.43320   0.83460   0.53300   0.00000  Uiso   1.00
H78    H     0.45930   0.74900   0.50620   0.00000  Uiso   1.00
C79    C     0.63760   0.98320   0.37970   0.00000  Uiso   1.00
H80    H     0.55130   0.01880   0.37780   0.00000  Uiso   1.00
C81    C     0.23800   0.81740   0.78760   0.00000  Uiso   1.00
H82    H     0.31500   0.75680   0.80000   0.00000  Uiso   1.00
C83    C     0.12370   0.82360   0.66150   0.00000  Uiso   1.00
H84    H     0.12320   0.76740   0.58990   0.00000  Uiso   1.00
C85    C     0.88790   0.89010   0.38670   0.00000  Uiso   1.00
H86    H     0.97430   0.85960   0.38510   0.00000  Uiso   1.00
C87    C     0.01060   0.91180   0.64030   0.00000  Uiso   1.00
H88    H     0.75300   0.10900   0.85900   0.00000  Uiso   1.00
loop_
_geom_bond_atom_site_label_1
_geom_bond_atom_site_label_2
_geom_bond_distance
_geom_bond_site_symmetry_2
_ccdc_geom_bond_type
Fe1    O7      2.180   .     S
Fe1    O12     2.047   .     S
Fe1    N13     2.202   .     S
Fe1    O49     2.112   .     S
Fe1    O6      2.048   1_556 S
Fe1    N15     2.205   1_556 S
P2     O4      1.572   .     S
P2     O5      1.512   .     S
P2     O6      1.510   .     S
P2     C16     1.814   .     S
P3     O10     1.561   .     S
P3     O14     1.514   .     S
P3     C17     1.801   .     S
P3     O12     1.500   .     S
O4     H44     0.817   .     S
O5     Fe45    2.112   .     S
O6     Fe1     2.048   1_554 S
O7     H8      0.871   .     S
O7     H9      0.871   .     S
O10    H11     0.840   .     S
N13    C24     1.344   .     S
N13    C35     1.340   .     S
N15    C22     1.340   .     S
N15    C37     1.346   .     S
N15    Fe1     2.205   1_554 S
C16    C20     1.383   .     S
C16    C26     1.395   .     S
C17    C18     1.399   .     S
C17    C33     1.394   .     S
C18    H19     0.950   .     S
C18    C20     1.395   .     S
C20    H21     0.950   .     S
C22    H23     0.950   .     S
C22    C31     1.384   .     S
C24    H25     0.950   .     S
C24    C41     1.386   .     S
C26    H27     0.950   .     S
C26    C33     1.393   .     S
C28    C29     1.393   .     S
C28    C43     1.489   1_455 S
C28    C41     1.395   .     S
C29    H30     0.949   .     S
C29    C35     1.387   .     S
C31    H32     0.950   1_655 S
C31    C43     1.403   .     S
H32    C31     0.950   1_455 S
C33    H34     0.950   .     S
C35    H36     0.950   .     S
C37    H38     0.950   .     S
C37    C39     1.389   .     S
C39    H40     0.951   .     S
C39    C43     1.384   .     S
C41    H42     0.950   .     S
C43    C28     1.489   1_655 S
Fe45   O51     2.180   1_565 S
Fe45   O56     2.047   .     S
Fe45   N57     2.202   .     S
Fe45   O50     2.048   1_554 S
Fe45   N59     2.205   1_554 S
P46    O48     1.572   .     S
P46    O49     1.512   .     S
P46    O50     1.510   1_545 S
P46    C60     1.814   .     S
P47    O54     1.561   .     S
P47    O58     1.514   .     S
P47    C61     1.801   .     S
P47    O56     1.500   .     S
O48    H88     0.817   .     S
O50    P46     1.510   1_565 S
O50    Fe45    2.048   1_556 S
O51    Fe45    2.180   1_545 S
O51    H52     0.871   .     S
O51    H53     0.871   .     S
O54    H55     0.840   .     S
N57    C68     1.344   .     S
N57    C79     1.340   .     S
N59    C66     1.340   .     S
N59    C81     1.346   .     S
N59    Fe45    2.205   1_556 S
C60    C64     1.383   .     S
C60    C70     1.395   1_545 S
C61    C62     1.399   1_565 S
C61    C77     1.394   .     S
C62    C61     1.399   1_545 S
C62    H63     0.950   .     S
C62    C64     1.395   .     S
C64    H65     0.950   .     S
C66    H67     0.950   1_565 S
C66    C75     1.384   .     S
H67    C66     0.950   1_545 S
C68    H69     0.950   .     S
C68    C85     1.386   .     S
C70    C60     1.395   1_565 S
C70    H71     0.950   .     S
C70    C77     1.393   .     S
C72    C73     1.393   .     S
C72    C87     1.489   1_655 S
C72    C85     1.395   .     S
C73    H74     0.949   1_565 S
C73    C79     1.387   .     S
H74    C73     0.949   1_545 S
C75    H76     0.950   1_465 S
C75    C87     1.403   .     S
H76    C75     0.950   1_645 S
C77    H78     0.950   .     S
C79    H80     0.950   1_565 S
H80    C79     0.950   1_545 S
C81    H82     0.950   .     S
C81    C83     1.389   .     S
C83    H84     0.951   .     S
C83    C87     1.384   .     S
C85    H86     0.950   .     S
C87    C72     1.489   1_455 S
