data_DELTIB_FSR
_audit_creation_date              2024-06-12
_audit_creation_method            'Materials Studio'
_symmetry_space_group_name_H-M    'P1'
_symmetry_Int_Tables_number       1
_symmetry_cell_setting            triclinic
loop_
_symmetry_equiv_pos_as_xyz
  x,y,z
_cell_length_a                    6.1802
_cell_length_b                    9.9806
_cell_length_c                    13.1695
_cell_angle_alpha                 101.7740
_cell_angle_beta                  99.8880
_cell_angle_gamma                 95.0150
loop_
_atom_site_label
_atom_site_type_symbol
_atom_site_fract_x
_atom_site_fract_y
_atom_site_fract_z
_atom_site_U_iso_or_equiv
_atom_site_adp_type
_atom_site_occupancy
P1     P     0.64847   0.80109   0.65080   0.00000  Uiso   1.00
O2     O     0.69720   0.89563   0.57790   0.00000  Uiso   1.00
O3     O     0.47350   0.84186   0.71276   0.00000  Uiso   1.00
O4     O     0.87240   0.79064   0.72248   0.00000  Uiso   1.00
H5     H     0.92150   0.86790   0.76280   0.00000  Uiso   1.00
N6     N     0.40240   0.83290   0.38102   0.00000  Uiso   1.00
N7     N     0.04820   0.02124  -0.15058   0.00000  Uiso   1.00
C8     C     0.56750   0.62900   0.57008   0.00000  Uiso   1.00
C9     C     0.72220   0.53990   0.54544   0.00000  Uiso   1.00
H10    H     0.87460   0.56670   0.57620   0.00000  Uiso   1.00
C11    C     0.65490   0.41250   0.47640   0.00000  Uiso   1.00
H12    H     0.76180   0.35260   0.46050   0.00000  Uiso   1.00
C13    C     0.54550   0.74710   0.34784   0.00000  Uiso   1.00
H14    H     0.69720   0.76780   0.38120   0.00000  Uiso   1.00
C15    C     0.48080   0.63050   0.26725   0.00000  Uiso   1.00
H16    H     0.58650   0.57220   0.24660   0.00000  Uiso   1.00
C17    C     0.25870   0.59890   0.21637   0.00000  Uiso   1.00
C18    C     0.11240   0.68740   0.25298   0.00000  Uiso   1.00
H19    H    -0.04070   0.66870   0.22190   0.00000  Uiso   1.00
C20    C     0.18840   0.80150   0.33364   0.00000  Uiso   1.00
H21    H     0.08550   0.86040   0.35680   0.00000  Uiso   1.00
C22    C     0.17390   0.47830   0.13033   0.00000  Uiso   1.00
H23    H     0.01780   0.45950   0.10730   0.00000  Uiso   1.00
C24    C     0.29590   0.39250   0.08126   0.00000  Uiso   1.00
H25    H     0.45230   0.41480   0.09960   0.00000  Uiso   1.00
C26    C     0.20610   0.26580   0.00082   0.00000  Uiso   1.00
C27    C     0.34050   0.20000  -0.06280   0.00000  Uiso   1.00
H28    H     0.49020   0.23820  -0.05520   0.00000  Uiso   1.00
C29    C     0.25750   0.07920  -0.13699   0.00000  Uiso   1.00
H30    H     0.35210   0.03600  -0.17970   0.00000  Uiso   1.00
C31    C    -0.08340   0.08420  -0.09008   0.00000  Uiso   1.00
H32    H    -0.23280   0.04400  -0.10020   0.00000  Uiso   1.00
C33    C    -0.01270   0.20440  -0.01383   0.00000  Uiso   1.00
H34    H    -0.11100   0.24470   0.02810   0.00000  Uiso   1.00
P38    P     0.35153   0.19891   0.34920   0.00000  Uiso   1.00
O39    O     0.30280   0.10437   0.42210   0.00000  Uiso   1.00
O40    O     0.52650   0.15814   0.28724   0.00000  Uiso   1.00
O41    O     0.12760   0.20936   0.27752   0.00000  Uiso   1.00
H42    H     0.07850   0.13210   0.23720   0.00000  Uiso   1.00
N43    N     0.59760   0.16710   0.61898   0.00000  Uiso   1.00
N44    N     0.95180   0.97876   1.15058   0.00000  Uiso   1.00
C45    C     0.43250   0.37100   0.42992   0.00000  Uiso   1.00
C46    C     0.27780   0.46010   0.45456   0.00000  Uiso   1.00
H47    H     0.12540   0.43330   0.42380   0.00000  Uiso   1.00
C48    C     0.34510   0.58750   0.52360   0.00000  Uiso   1.00
H49    H     0.23820   0.64740   0.53950   0.00000  Uiso   1.00
C50    C     0.45450   0.25290   0.65216   0.00000  Uiso   1.00
H51    H     0.30280   0.23220   0.61880   0.00000  Uiso   1.00
C52    C     0.51920   0.36950   0.73275   0.00000  Uiso   1.00
H53    H     0.41350   0.42780   0.75340   0.00000  Uiso   1.00
C54    C     0.74130   0.40110   0.78363   0.00000  Uiso   1.00
C55    C     0.88760   0.31260   0.74702   0.00000  Uiso   1.00
H56    H     1.04070   0.33130   0.77810   0.00000  Uiso   1.00
C57    C     0.81160   0.19850   0.66636   0.00000  Uiso   1.00
H58    H     0.91450   0.13960   0.64320   0.00000  Uiso   1.00
C59    C     0.82610   0.52170   0.86967   0.00000  Uiso   1.00
H60    H     0.98220   0.54050   0.89270   0.00000  Uiso   1.00
C61    C     0.70410   0.60750   0.91874   0.00000  Uiso   1.00
H62    H     0.54770   0.58520   0.90040   0.00000  Uiso   1.00
C63    C     0.79390   0.73420   0.99918   0.00000  Uiso   1.00
C64    C     0.65950   0.80000   1.06280   0.00000  Uiso   1.00
H65    H     0.50980   0.76180   1.05520   0.00000  Uiso   1.00
C66    C     0.74250   0.92080   1.13699   0.00000  Uiso   1.00
H67    H     0.64790   0.96400   1.17970   0.00000  Uiso   1.00
C68    C     1.08340   0.91580   1.09008   0.00000  Uiso   1.00
H69    H     1.23280   0.95600   1.10020   0.00000  Uiso   1.00
C70    C     1.01270   0.79560   1.01383   0.00000  Uiso   1.00
H71    H     1.11100   0.75530   0.97190   0.00000  Uiso   1.00
Cu75   Cu    0.50000  -0.00000   0.50000   0.00000  Uiso   1.00
loop_
_geom_bond_atom_site_label_1
_geom_bond_atom_site_label_2
_geom_bond_distance
_geom_bond_site_symmetry_2
_ccdc_geom_bond_type
P1     O2      1.524   .     S
P1     O3      1.498   .     D
P1     O4      1.560   .     S
P1     C8      1.803   .     S
O2     Cu75    1.963   1_565 S
O4     H5      0.840   .     S
N6     C13     1.349   .     A
N6     C20     1.342   .     A
N6     Cu75    2.008   1_565 S
N7     C29     1.337   .     A
N7     C31     1.341   .     A
C8     C9      1.396   .     A
C8     C48     1.394   .     A
C9     H10     0.950   .     S
C9     C11     1.386   .     A
C11    H12     0.950   .     S
C11    C45     1.394   .     A
C13    H14     0.950   .     S
C13    C15     1.382   .     A
C15    H16     0.950   .     S
C15    C17     1.398   .     A
C17    C18     1.395   .     A
C17    C22     1.462   .     S
C18    H19     0.950   .     S
C18    C20     1.374   .     A
C20    H21     0.950   .     S
C22    H23     0.950   .     S
C22    C24     1.332   .     D
C24    H25     0.950   .     S
C24    C26     1.469   .     S
C26    C27     1.390   .     A
C26    C33     1.399   .     A
C27    H28     0.950   .     S
C27    C29     1.382   .     A
C29    H30     0.950   .     S
C31    H32     0.950   .     S
C31    C33     1.380   .     A
C33    H34     0.950   .     S
P38    O39     1.524   .     S
P38    O40     1.498   .     D
P38    O41     1.560   .     S
P38    C45     1.803   .     S
O39    Cu75    1.963   .     S
O41    H42     0.840   .     S
N43    Cu75    2.008   .     S
N43    C50     1.349   .     A
N43    C57     1.342   .     A
N44    C66     1.337   .     A
N44    C68     1.341   .     A
C45    C46     1.396   .     A
C46    H47     0.950   .     S
C46    C48     1.386   .     A
C48    H49     0.950   .     S
C50    H51     0.950   .     S
C50    C52     1.382   .     A
C52    H53     0.950   .     S
C52    C54     1.398   .     A
C54    C55     1.395   .     A
C54    C59     1.462   .     S
C55    H56     0.950   .     S
C55    C57     1.374   .     A
C57    H58     0.950   .     S
C59    H60     0.950   .     S
C59    C61     1.332   .     D
C61    H62     0.950   .     S
C61    C63     1.469   .     S
C63    C64     1.390   .     A
C63    C70     1.399   .     A
C64    H65     0.950   .     S
C64    C66     1.382   .     A
C66    H67     0.950   .     S
C68    H69     0.950   .     S
C68    C70     1.380   .     A
C70    H71     0.950   .     S
Cu75   O2      1.963   1_545 S
Cu75   N6      2.008   1_545 S
