data_DELTAT_FSR
_audit_creation_date              2024-06-11
_audit_creation_method            'Materials Studio'
_symmetry_space_group_name_H-M    'P1'
_symmetry_Int_Tables_number       1
_symmetry_cell_setting            triclinic
loop_
_symmetry_equiv_pos_as_xyz
  x,y,z
_cell_length_a                    10.3354
_cell_length_b                    9.5263
_cell_length_c                    11.0105
_cell_angle_alpha                 90.0000
_cell_angle_beta                  115.8580
_cell_angle_gamma                 90.0000
loop_
_atom_site_label
_atom_site_type_symbol
_atom_site_fract_x
_atom_site_fract_y
_atom_site_fract_z
_atom_site_U_iso_or_equiv
_atom_site_adp_type
_atom_site_occupancy
Co1    Co    0.43706   0.42053   0.58288   0.00000  Uiso   1.00
P2     P     0.56728   0.56208   0.38256   0.00000  Uiso   1.00
P3     P     0.24191   0.35889   0.76634   0.00000  Uiso   1.00
O4     O     0.55300   0.44990   0.47180   0.00000  Uiso   1.00
O5     O     0.51700   0.70610   0.39920   0.00000  Uiso   1.00
O6     O     0.72930   0.56440   0.40770   0.00000  Uiso   1.00
H7     H     0.73760   0.61370   0.34820   0.00000  Uiso   1.00
O8     O     0.24190   0.20070   0.76730   0.00000  Uiso   1.00
O9     O     0.31220   0.42850   0.68960   0.00000  Uiso   1.00
O10    O     0.07950   0.40420   0.71050   0.00000  Uiso   1.00
H11    H     0.07050   0.48790   0.68420   0.00000  Uiso   1.00
O12    O     0.40660   0.64220   0.57740   0.00000  Uiso   1.00
H13    H     0.42680   0.67860   0.51480   0.00000  Uiso   1.00
H14    H     0.31550   0.66130   0.55090   0.00000  Uiso   1.00
N15    N     0.63700   0.44650   0.76080   0.00000  Uiso   1.00
N16    N     0.24620   0.39610   0.39580   0.00000  Uiso   1.00
C17    C     0.47100   0.50860   0.20780   0.00000  Uiso   1.00
C18    C     0.36140   0.58760   0.11310   0.00000  Uiso   1.00
H19    H     0.33540   0.67410   0.13930   0.00000  Uiso   1.00
C20    C     0.28830   0.54290   0.97970   0.00000  Uiso   1.00
H21    H     0.21310   0.59870   0.91610   0.00000  Uiso   1.00
C22    C     0.32530   0.41670   0.93940   0.00000  Uiso   1.00
C23    C     0.43560   0.33670   0.03420   0.00000  Uiso   1.00
H24    H     0.46230   0.25060   0.00790   0.00000  Uiso   1.00
C25    C     0.50730   0.38190   0.16750   0.00000  Uiso   1.00
H26    H     0.58180   0.32570   0.23160   0.00000  Uiso   1.00
C27    C     0.63560   0.48720   0.87620   0.00000  Uiso   1.00
H28    H     0.54850   0.52360   0.87280   0.00000  Uiso   1.00
C29    C     0.75390   0.47940   0.00040   0.00000  Uiso   1.00
H30    H     0.74650   0.50830   0.07970   0.00000  Uiso   1.00
C31    C     0.88320   0.42920   0.00860   0.00000  Uiso   1.00
C32    C     0.88640   0.39100   0.88760   0.00000  Uiso   1.00
H33    H     0.97300   0.35780   0.88740   0.00000  Uiso   1.00
C34    C     0.76280   0.40170   0.76830   0.00000  Uiso   1.00
H35    H     0.76750   0.37580   0.68690   0.00000  Uiso   1.00
C36    C     0.01090   0.41570   0.14140   0.00000  Uiso   1.00
C37    C     0.01620   0.49310   0.25140   0.00000  Uiso   1.00
H38    H     0.93990   0.55490   0.24100   0.00000  Uiso   1.00
C39    C     0.13390   0.47850   0.37570   0.00000  Uiso   1.00
H40    H     0.13490   0.52950   0.45030   0.00000  Uiso   1.00
C41    C     0.24080   0.32190   0.29020   0.00000  Uiso   1.00
H42    H     0.31930   0.26220   0.30300   0.00000  Uiso   1.00
C43    C     0.12600   0.32850   0.16360   0.00000  Uiso   1.00
H44    H     0.12620   0.27310   0.09190   0.00000  Uiso   1.00
Co45   Co    0.56294   0.92053   0.41712   0.00000  Uiso   1.00
P46    P     0.43272   0.06208   0.61744   0.00000  Uiso   1.00
P47    P     0.75809   0.85889   0.23366   0.00000  Uiso   1.00
O48    O     0.44700   0.94990   0.52820   0.00000  Uiso   1.00
O49    O     0.48300   0.20610   0.60080   0.00000  Uiso   1.00
O50    O     0.27070   0.06440   0.59230   0.00000  Uiso   1.00
H51    H     0.26240   0.11370   0.65180   0.00000  Uiso   1.00
O52    O     0.75810   0.70070   0.23270   0.00000  Uiso   1.00
O53    O     0.68780   0.92850   0.31040   0.00000  Uiso   1.00
O54    O     0.92050   0.90420   0.28950   0.00000  Uiso   1.00
H55    H     0.92950   0.98790   0.31580   0.00000  Uiso   1.00
O56    O     0.59340   0.14220   0.42260   0.00000  Uiso   1.00
H57    H     0.57320   0.17860   0.48520   0.00000  Uiso   1.00
H58    H     0.68450   0.16130   0.44910   0.00000  Uiso   1.00
N59    N     0.36300   0.94650   0.23920   0.00000  Uiso   1.00
N60    N     0.75380   0.89610   0.60420   0.00000  Uiso   1.00
C61    C     0.52900   0.00860   0.79220   0.00000  Uiso   1.00
C62    C     0.63860   0.08760   0.88690   0.00000  Uiso   1.00
H63    H     0.66460   0.17410   0.86070   0.00000  Uiso   1.00
C64    C     0.71170   0.04290   0.02030   0.00000  Uiso   1.00
H65    H     0.78690   0.09870   0.08390   0.00000  Uiso   1.00
C66    C     0.67470   0.91670   0.06060   0.00000  Uiso   1.00
C67    C     0.56440   0.83670   0.96580   0.00000  Uiso   1.00
H68    H     0.53770   0.75060   0.99210   0.00000  Uiso   1.00
C69    C     0.49270   0.88190   0.83250   0.00000  Uiso   1.00
H70    H     0.41820   0.82570   0.76840   0.00000  Uiso   1.00
C71    C     0.36440   0.98720   0.12380   0.00000  Uiso   1.00
H72    H     0.45150   0.02360   0.12720   0.00000  Uiso   1.00
C73    C     0.24610   0.97940   0.99960   0.00000  Uiso   1.00
H74    H     0.25350   0.00830   0.92030   0.00000  Uiso   1.00
C75    C     0.11680   0.92920   0.99140   0.00000  Uiso   1.00
C76    C     0.11360   0.89100   0.11240   0.00000  Uiso   1.00
H77    H     0.02700   0.85780   0.11260   0.00000  Uiso   1.00
C78    C     0.23720   0.90170   0.23170   0.00000  Uiso   1.00
H79    H     0.23250   0.87580   0.31310   0.00000  Uiso   1.00
C80    C     0.98910   0.91570   0.85860   0.00000  Uiso   1.00
C81    C     0.98380   0.99310   0.74860   0.00000  Uiso   1.00
H82    H     0.06010   0.05490   0.75900   0.00000  Uiso   1.00
C83    C     0.86610   0.97850   0.62430   0.00000  Uiso   1.00
H84    H     0.86510   0.02950   0.54970   0.00000  Uiso   1.00
C85    C     0.75920   0.82190   0.70980   0.00000  Uiso   1.00
H86    H     0.68070   0.76220   0.69700   0.00000  Uiso   1.00
C87    C     0.87400   0.82850   0.83640   0.00000  Uiso   1.00
H88    H     0.87380   0.77310   0.90810   0.00000  Uiso   1.00
loop_
_geom_bond_atom_site_label_1
_geom_bond_atom_site_label_2
_geom_bond_distance
_geom_bond_site_symmetry_2
_ccdc_geom_bond_type
Co1    O4      2.071   .     S
Co1    O12     2.132   .     S
Co1    N15     2.154   .     S
Co1    O49     2.087   .     S
Co1    O9      2.092   .     S
Co1    N16     2.155   .     S
P2     O4      1.502   .     S
P2     O5      1.506   .     S
P2     O6      1.574   .     S
P2     C17     1.812   .     S
P3     O8      1.507   .     S
P3     O9      1.489   .     S
P3     O10     1.575   .     S
P3     C22     1.801   .     S
O5     Co45    2.087   .     S
O6     H7      0.840   .     S
O10    H11     0.840   .     S
O12    H13     0.874   .     S
O12    H14     0.875   .     S
N15    C27     1.335   .     S
N15    C34     1.336   .     S
N16    C39     1.337   .     S
N16    C41     1.341   .     S
C17    C18     1.381   .     S
C17    C25     1.393   .     S
C18    H19     0.950   .     S
C18    C20     1.393   1_554 S
C20    C18     1.393   1_556 S
C20    H21     0.950   .     S
C20    C22     1.392   .     S
C22    C23     1.390   1_556 S
C23    C22     1.390   1_554 S
C23    H24     0.950   .     S
C23    C25     1.393   .     S
C25    H26     0.951   .     S
C27    H28     0.950   .     S
C27    C29     1.383   1_556 S
C29    C27     1.383   1_554 S
C29    H30     0.950   .     S
C29    C31     1.385   .     S
C31    C32     1.395   1_554 S
C31    C36     1.488   1_655 S
C32    C31     1.395   1_556 S
C32    H33     0.950   .     S
C32    C34     1.380   .     S
C34    H35     0.951   .     S
C36    C31     1.488   1_455 S
C36    C37     1.398   .     S
C36    C43     1.383   .     S
C37    H38     0.950   1_455 S
C37    C39     1.386   .     S
H38    C37     0.950   1_655 S
C39    H40     0.950   .     S
C41    H42     0.950   .     S
C41    C43     1.383   .     S
C43    H44     0.950   .     S
Co45   O48     2.071   .     S
Co45   O56     2.132   1_565 S
Co45   N59     2.154   .     S
Co45   O53     2.092   .     S
Co45   N60     2.155   .     S
P46    O48     1.502   1_545 S
P46    O49     1.506   .     S
P46    O50     1.574   .     S
P46    C61     1.812   .     S
P47    O52     1.507   .     S
P47    O53     1.489   .     S
P47    O54     1.575   .     S
P47    C66     1.801   .     S
O48    P46     1.502   1_565 S
O50    H51     0.840   .     S
O54    H55     0.840   .     S
O56    Co45    2.132   1_545 S
O56    H57     0.874   .     S
O56    H58     0.875   .     S
N59    C71     1.335   .     S
N59    C78     1.336   .     S
N60    C83     1.337   .     S
N60    C85     1.341   .     S
C61    C62     1.381   .     S
C61    C69     1.393   1_545 S
C62    H63     0.950   .     S
C62    C64     1.393   1_556 S
C64    C62     1.393   1_554 S
C64    H65     0.950   .     S
C64    C66     1.392   1_545 S
C66    C67     1.390   1_554 S
C66    C64     1.392   1_565 S
C67    C66     1.390   1_556 S
C67    H68     0.950   .     S
C67    C69     1.393   .     S
C69    C61     1.393   1_565 S
C69    H70     0.951   .     S
C71    H72     0.950   1_565 S
C71    C73     1.383   1_554 S
H72    C71     0.950   1_545 S
C73    C71     1.383   1_556 S
C73    H74     0.950   1_565 S
C73    C75     1.385   .     S
H74    C73     0.950   1_545 S
C75    C76     1.395   1_556 S
C75    C80     1.488   1_455 S
C76    C75     1.395   1_554 S
C76    H77     0.950   .     S
C76    C78     1.380   .     S
C78    H79     0.951   .     S
C80    C75     1.488   1_655 S
C80    C81     1.398   .     S
C80    C87     1.383   .     S
C81    H82     0.950   1_665 S
C81    C83     1.386   .     S
H82    C81     0.950   1_445 S
C83    H84     0.950   1_565 S
H84    C83     0.950   1_545 S
C85    H86     0.950   .     S
C85    C87     1.383   .     S
C87    H88     0.950   .     S
