data_DIBJAC_FSR
_audit_creation_date              2024-06-11
_audit_creation_method            'Materials Studio'
_symmetry_space_group_name_H-M    'P1'
_symmetry_Int_Tables_number       1
_symmetry_cell_setting            triclinic
loop_
_symmetry_equiv_pos_as_xyz
  x,y,z
_cell_length_a                    9.7637
_cell_length_b                    9.7640
_cell_length_c                    20.5506
_cell_angle_alpha                 90.0000
_cell_angle_beta                  90.0000
_cell_angle_gamma                 90.0000
loop_
_atom_site_label
_atom_site_type_symbol
_atom_site_fract_x
_atom_site_fract_y
_atom_site_fract_z
_atom_site_U_iso_or_equiv
_atom_site_adp_type
_atom_site_occupancy
Sm1    Sm    0.79038   0.00361   0.00973   0.01087  Uani   1.00
P2     P     0.73146   0.25511  -0.12132   0.01133  Uani   1.00
P3     P     0.99273   0.27917  -0.04735   0.00980  Uani   1.00
O4     O     0.71020   0.12220  -0.08606   0.01507  Uani   1.00
O5     O     0.89670   0.35970  -0.00438   0.01630  Uani   1.00
O6     O     0.13730   0.33410  -0.05124   0.01757  Uani   1.00
O7     O     0.99470   0.12580  -0.03007   0.01373  Uani   1.00
O8     O     0.66210   0.37690  -0.09125   0.01403  Uani   1.00
O9     O     0.93390   0.43150  -0.15221   0.01743  Uani   1.00
O10    O     0.67570   0.23220  -0.19269   0.01970  Uani   1.00
O11    O     0.69280   0.90740   0.12084   0.02403  Uani   1.00
O12    O     0.89260   0.12430   0.10585   0.01910  Uani   1.00
C13    C     0.91520   0.29070  -0.12893   0.01240  Uani   1.00
C14    C     0.98450   0.19690  -0.17760   0.02067  Uani   1.00
H15    H     0.95140   0.21690  -0.22050   0.03100  Uiso   1.00
H16    H     0.96420   0.10330  -0.16700   0.03100  Uiso   1.00
H17    H     0.08170   0.21100  -0.17610   0.03100  Uiso   1.00
H18    H     0.88470   0.48750  -0.13040   0.03100  Uiso   1.00
H19    H     0.67450   0.28560  -0.22110   0.03100  Uiso   1.00
H20    H     0.66980   0.84780   0.11510   0.03100  Uiso   1.00
H21    H     0.62970   0.95640   0.12020   0.03100  Uiso   1.00
H22    H     0.96380   0.12130   0.10130   0.03100  Uiso   1.00
H23    H     0.87500   0.09610   0.13760   0.03100  Uiso   1.00
Sm24   Sm    0.70962   0.99639   0.50973   0.01087  Uani   1.00
P25    P     0.76854   0.74489   0.37868   0.01133  Uani   1.00
P26    P     0.50727   0.72083   0.45265   0.00980  Uani   1.00
O27    O     0.78980   0.87780   0.41394   0.01507  Uani   1.00
O28    O     0.60330   0.64030   0.49562   0.01630  Uani   1.00
O29    O     0.36270   0.66590   0.44876   0.01757  Uani   1.00
O30    O     0.50530   0.87420   0.46993   0.01373  Uani   1.00
O31    O     0.83790   0.62310   0.40875   0.01403  Uani   1.00
O32    O     0.56610   0.56850   0.34779   0.01743  Uani   1.00
O33    O     0.82430   0.76780   0.30731   0.01970  Uani   1.00
O34    O     0.80720   0.09260   0.62084   0.02403  Uani   1.00
O35    O     0.60740   0.87570   0.60585   0.01910  Uani   1.00
C36    C     0.58480   0.70930   0.37107   0.01240  Uani   1.00
C37    C     0.51550   0.80310   0.32240   0.02067  Uani   1.00
H38    H     0.54860   0.78310   0.27950   0.03100  Uiso   1.00
H39    H     0.53580   0.89670   0.33300   0.03100  Uiso   1.00
H40    H     0.41830   0.78900   0.32390   0.03100  Uiso   1.00
H41    H     0.61530   0.51250   0.36960   0.03100  Uiso   1.00
H42    H     0.82550   0.71440   0.27890   0.03100  Uiso   1.00
H43    H     0.83020   0.15220   0.61510   0.03100  Uiso   1.00
H44    H     0.87030   0.04360   0.62020   0.03100  Uiso   1.00
H45    H     0.53620   0.87870   0.60130   0.03100  Uiso   1.00
H46    H     0.62500   0.90390   0.63760   0.03100  Uiso   1.00
Sm47   Sm    0.20962   0.50361   0.49027   0.01087  Uani   1.00
P48    P     0.26854   0.75511   0.62132   0.01133  Uani   1.00
P49    P     0.00727   0.77917   0.54735   0.00980  Uani   1.00
O50    O     0.28980   0.62220   0.58606   0.01507  Uani   1.00
O51    O     0.10330   0.85970   0.50438   0.01630  Uani   1.00
O52    O     0.86270   0.83410   0.55124   0.01757  Uani   1.00
O53    O     0.00530   0.62580   0.53007   0.01373  Uani   1.00
O54    O     0.33790   0.87690   0.59125   0.01403  Uani   1.00
O55    O     0.06610   0.93150   0.65221   0.01743  Uani   1.00
O56    O     0.32430   0.73220   0.69269   0.01970  Uani   1.00
O57    O     0.30720   0.40740   0.37916   0.02403  Uani   1.00
O58    O     0.10740   0.62430   0.39415   0.01910  Uani   1.00
C59    C     0.08480   0.79070   0.62893   0.01240  Uani   1.00
C60    C     0.01550   0.69690   0.67760   0.02067  Uani   1.00
H61    H     0.04860   0.71690   0.72050   0.03100  Uiso   1.00
H62    H     0.03580   0.60330   0.66700   0.03100  Uiso   1.00
H63    H     0.91830   0.71100   0.67610   0.03100  Uiso   1.00
H64    H     0.11530   0.98750   0.63040   0.03100  Uiso   1.00
H65    H     0.32550   0.78560   0.72110   0.03100  Uiso   1.00
H66    H     0.33020   0.34780   0.38490   0.03100  Uiso   1.00
H67    H     0.37030   0.45640   0.37980   0.03100  Uiso   1.00
H68    H     0.03620   0.62130   0.39870   0.03100  Uiso   1.00
H69    H     0.12500   0.59610   0.36240   0.03100  Uiso   1.00
Sm70   Sm    0.29038   0.49639  -0.00973   0.01087  Uani   1.00
P71    P     0.23146   0.24489   0.12132   0.01133  Uani   1.00
P72    P     0.49273   0.22083   0.04735   0.00980  Uani   1.00
O73    O     0.21020   0.37780   0.08606   0.01507  Uani   1.00
O74    O     0.39670   0.14030   0.00438   0.01630  Uani   1.00
O75    O     0.63730   0.16590   0.05124   0.01757  Uani   1.00
O76    O     0.49470   0.37420   0.03007   0.01373  Uani   1.00
O77    O     0.16210   0.12310   0.09125   0.01403  Uani   1.00
O78    O     0.43390   0.06850   0.15221   0.01743  Uani   1.00
O79    O     0.17570   0.26780   0.19269   0.01970  Uani   1.00
O80    O     0.19280   0.59260  -0.12084   0.02403  Uani   1.00
O81    O     0.39260   0.37570  -0.10585   0.01910  Uani   1.00
C82    C     0.41520   0.20930   0.12893   0.01240  Uani   1.00
C83    C     0.48450   0.30310   0.17760   0.02067  Uani   1.00
H84    H     0.45140   0.28310   0.22050   0.03100  Uiso   1.00
H85    H     0.46420   0.39670   0.16700   0.03100  Uiso   1.00
H86    H     0.58170   0.28900   0.17610   0.03100  Uiso   1.00
H87    H     0.38470   0.01250   0.13040   0.03100  Uiso   1.00
H88    H     0.17450   0.21440   0.22110   0.03100  Uiso   1.00
H89    H     0.16980   0.65220  -0.11510   0.03100  Uiso   1.00
H90    H     0.12970   0.54360  -0.12020   0.03100  Uiso   1.00
H91    H     0.46380   0.37870  -0.10130   0.03100  Uiso   1.00
H92    H     0.37500   0.40390  -0.13760   0.03100  Uiso   1.00
Sm93   Sm    0.20962   0.99639  -0.00973   0.01087  Uani   1.00
P94    P     0.26854   0.74489   0.12132   0.01133  Uani   1.00
P95    P     0.00727   0.72083   0.04735   0.00980  Uani   1.00
O96    O     0.28980   0.87780   0.08606   0.01507  Uani   1.00
O97    O     0.10330   0.64030   0.00438   0.01630  Uani   1.00
O98    O     0.86270   0.66590   0.05124   0.01757  Uani   1.00
O99    O     0.00530   0.87420   0.03007   0.01373  Uani   1.00
O100   O     0.33790   0.62310   0.09125   0.01403  Uani   1.00
O101   O     0.06610   0.56850   0.15221   0.01743  Uani   1.00
O102   O     0.32430   0.76780   0.19269   0.01970  Uani   1.00
O103   O     0.30720   0.09260  -0.12084   0.02403  Uani   1.00
O104   O     0.10740   0.87570  -0.10585   0.01910  Uani   1.00
C105   C     0.08480   0.70930   0.12893   0.01240  Uani   1.00
C106   C     0.01550   0.80310   0.17760   0.02067  Uani   1.00
H107   H     0.04860   0.78310   0.22050   0.03100  Uiso   1.00
H108   H     0.03580   0.89670   0.16700   0.03100  Uiso   1.00
H109   H     0.91830   0.78900   0.17610   0.03100  Uiso   1.00
H110   H     0.11530   0.51250   0.13040   0.03100  Uiso   1.00
H111   H     0.32550   0.71440   0.22110   0.03100  Uiso   1.00
H112   H     0.33020   0.15220  -0.11510   0.03100  Uiso   1.00
H113   H     0.37030   0.04360  -0.12020   0.03100  Uiso   1.00
H114   H     0.03620   0.87870  -0.10130   0.03100  Uiso   1.00
H115   H     0.12500   0.90390  -0.13760   0.03100  Uiso   1.00
Sm116  Sm    0.29038   0.00361   0.49027   0.01087  Uani   1.00
P117   P     0.23146   0.25511   0.62132   0.01133  Uani   1.00
P118   P     0.49273   0.27917   0.54735   0.00980  Uani   1.00
O119   O     0.21020   0.12220   0.58606   0.01507  Uani   1.00
O120   O     0.39670   0.35970   0.50438   0.01630  Uani   1.00
O121   O     0.63730   0.33410   0.55124   0.01757  Uani   1.00
O122   O     0.49470   0.12580   0.53007   0.01373  Uani   1.00
O123   O     0.16210   0.37690   0.59125   0.01403  Uani   1.00
O124   O     0.43390   0.43150   0.65221   0.01743  Uani   1.00
O125   O     0.17570   0.23220   0.69269   0.01970  Uani   1.00
O126   O     0.19280   0.90740   0.37916   0.02403  Uani   1.00
O127   O     0.39260   0.12430   0.39415   0.01910  Uani   1.00
C128   C     0.41520   0.29070   0.62893   0.01240  Uani   1.00
C129   C     0.48450   0.19690   0.67760   0.02067  Uani   1.00
H130   H     0.45140   0.21690   0.72050   0.03100  Uiso   1.00
H131   H     0.46420   0.10330   0.66700   0.03100  Uiso   1.00
H132   H     0.58170   0.21100   0.67610   0.03100  Uiso   1.00
H133   H     0.38470   0.48750   0.63040   0.03100  Uiso   1.00
H134   H     0.17450   0.28560   0.72110   0.03100  Uiso   1.00
H135   H     0.16980   0.84780   0.38490   0.03100  Uiso   1.00
H136   H     0.12970   0.95640   0.37980   0.03100  Uiso   1.00
H137   H     0.46380   0.12130   0.39870   0.03100  Uiso   1.00
H138   H     0.37500   0.09610   0.36240   0.03100  Uiso   1.00
Sm139  Sm    0.79038   0.49639   0.50973   0.01087  Uani   1.00
P140   P     0.73146   0.24489   0.37868   0.01133  Uani   1.00
P141   P     0.99273   0.22083   0.45265   0.00980  Uani   1.00
O142   O     0.71020   0.37780   0.41394   0.01507  Uani   1.00
O143   O     0.89670   0.14030   0.49562   0.01630  Uani   1.00
O144   O     0.13730   0.16590   0.44876   0.01757  Uani   1.00
O145   O     0.99470   0.37420   0.46993   0.01373  Uani   1.00
O146   O     0.66210   0.12310   0.40875   0.01403  Uani   1.00
O147   O     0.93390   0.06850   0.34779   0.01743  Uani   1.00
O148   O     0.67570   0.26780   0.30731   0.01970  Uani   1.00
O149   O     0.69280   0.59260   0.62084   0.02403  Uani   1.00
O150   O     0.89260   0.37570   0.60585   0.01910  Uani   1.00
C151   C     0.91520   0.20930   0.37107   0.01240  Uani   1.00
C152   C     0.98450   0.30310   0.32240   0.02067  Uani   1.00
H153   H     0.95140   0.28310   0.27950   0.03100  Uiso   1.00
H154   H     0.96420   0.39670   0.33300   0.03100  Uiso   1.00
H155   H     0.08170   0.28900   0.32390   0.03100  Uiso   1.00
H156   H     0.88470   0.01250   0.36960   0.03100  Uiso   1.00
H157   H     0.67450   0.21440   0.27890   0.03100  Uiso   1.00
H158   H     0.66980   0.65220   0.61510   0.03100  Uiso   1.00
H159   H     0.62970   0.54360   0.62020   0.03100  Uiso   1.00
H160   H     0.96380   0.37870   0.60130   0.03100  Uiso   1.00
H161   H     0.87500   0.40390   0.63760   0.03100  Uiso   1.00
Sm162  Sm    0.70962   0.50361   0.00973   0.01087  Uani   1.00
P163   P     0.76854   0.75511  -0.12132   0.01133  Uani   1.00
P164   P     0.50727   0.77917  -0.04735   0.00980  Uani   1.00
O165   O     0.78980   0.62220  -0.08606   0.01507  Uani   1.00
O166   O     0.60330   0.85970  -0.00438   0.01630  Uani   1.00
O167   O     0.36270   0.83410  -0.05124   0.01757  Uani   1.00
O168   O     0.50530   0.62580  -0.03007   0.01373  Uani   1.00
O169   O     0.83790   0.87690  -0.09125   0.01403  Uani   1.00
O170   O     0.56610   0.93150  -0.15221   0.01743  Uani   1.00
O171   O     0.82430   0.73220  -0.19269   0.01970  Uani   1.00
O172   O     0.80720   0.40740   0.12084   0.02403  Uani   1.00
O173   O     0.60740   0.62430   0.10585   0.01910  Uani   1.00
C174   C     0.58480   0.79070  -0.12893   0.01240  Uani   1.00
C175   C     0.51550   0.69690  -0.17760   0.02067  Uani   1.00
H176   H     0.54860   0.71690  -0.22050   0.03100  Uiso   1.00
H177   H     0.53580   0.60330  -0.16700   0.03100  Uiso   1.00
H178   H     0.41830   0.71100  -0.17610   0.03100  Uiso   1.00
H179   H     0.61530   0.98750  -0.13040   0.03100  Uiso   1.00
H180   H     0.82550   0.78560  -0.22110   0.03100  Uiso   1.00
H181   H     0.83020   0.34780   0.11510   0.03100  Uiso   1.00
H182   H     0.87030   0.45640   0.12020   0.03100  Uiso   1.00
H183   H     0.53620   0.62130   0.10130   0.03100  Uiso   1.00
H184   H     0.62500   0.59610   0.13760   0.03100  Uiso   1.00
loop_
_atom_site_aniso_label
_atom_site_aniso_U_11
_atom_site_aniso_U_22
_atom_site_aniso_U_33
_atom_site_aniso_U_12
_atom_site_aniso_U_13
_atom_site_aniso_U_23
Sm1       0.00770   0.00980   0.01510   0.00012  -0.00048  -0.00099
P2        0.00960   0.00980   0.01460  -0.00030  -0.00120  -0.00080
P3        0.00720   0.00740   0.01480   0.00040   0.00010   0.00080
O4        0.01520   0.00890   0.02110  -0.00120  -0.00100   0.00370
O5        0.01570   0.01730   0.01590   0.00440   0.00070  -0.00070
O6        0.01250   0.01890   0.02130  -0.00680   0.00130  -0.00350
O7        0.01360   0.00760   0.02000   0.00010  -0.00220   0.00210
O8        0.00810   0.00960   0.02440   0.00020   0.00060  -0.00270
O9        0.01700   0.01240   0.02290   0.00140   0.00400   0.00600
O10       0.02240   0.01900   0.01770  -0.00050  -0.00620   0.00030
O11       0.02490   0.01760   0.02960  -0.00390  -0.00360   0.00140
O12       0.01090   0.02340   0.02300  -0.00180   0.00140   0.00060
C13       0.01360   0.00860   0.01500   0.00020   0.00020   0.00250
C14       0.02100   0.02200   0.01900   0.00420   0.00450  -0.00550
Sm24      0.00770   0.00980   0.01510   0.00012   0.00048   0.00099
P25       0.00960   0.00980   0.01460  -0.00030   0.00120   0.00080
P26       0.00720   0.00740   0.01480   0.00040  -0.00010  -0.00080
O27       0.01520   0.00890   0.02110  -0.00120   0.00100  -0.00370
O28       0.01570   0.01730   0.01590   0.00440  -0.00070   0.00070
O29       0.01250   0.01890   0.02130  -0.00680  -0.00130   0.00350
O30       0.01360   0.00760   0.02000   0.00010   0.00220  -0.00210
O31       0.00810   0.00960   0.02440   0.00020  -0.00060   0.00270
O32       0.01700   0.01240   0.02290   0.00140  -0.00400  -0.00600
O33       0.02240   0.01900   0.01770  -0.00050   0.00620  -0.00030
O34       0.02490   0.01760   0.02960  -0.00390   0.00360  -0.00140
O35       0.01090   0.02340   0.02300  -0.00180  -0.00140  -0.00060
C36       0.01360   0.00860   0.01500   0.00020  -0.00020  -0.00250
C37       0.02100   0.02200   0.01900   0.00420  -0.00450   0.00550
Sm47      0.00770   0.00980   0.01510  -0.00012  -0.00048   0.00099
P48       0.00960   0.00980   0.01460   0.00030  -0.00120   0.00080
P49       0.00720   0.00740   0.01480  -0.00040   0.00010  -0.00080
O50       0.01520   0.00890   0.02110   0.00120  -0.00100  -0.00370
O51       0.01570   0.01730   0.01590  -0.00440   0.00070   0.00070
O52       0.01250   0.01890   0.02130   0.00680   0.00130   0.00350
O53       0.01360   0.00760   0.02000  -0.00010  -0.00220  -0.00210
O54       0.00810   0.00960   0.02440  -0.00020   0.00060   0.00270
O55       0.01700   0.01240   0.02290  -0.00140   0.00400  -0.00600
O56       0.02240   0.01900   0.01770   0.00050  -0.00620  -0.00030
O57       0.02490   0.01760   0.02960   0.00390  -0.00360  -0.00140
O58       0.01090   0.02340   0.02300   0.00180   0.00140  -0.00060
C59       0.01360   0.00860   0.01500  -0.00020   0.00020  -0.00250
C60       0.02100   0.02200   0.01900  -0.00420   0.00450   0.00550
Sm70      0.00770   0.00980   0.01510  -0.00012   0.00048  -0.00099
P71       0.00960   0.00980   0.01460   0.00030   0.00120  -0.00080
P72       0.00720   0.00740   0.01480  -0.00040  -0.00010   0.00080
O73       0.01520   0.00890   0.02110   0.00120   0.00100   0.00370
O74       0.01570   0.01730   0.01590  -0.00440  -0.00070  -0.00070
O75       0.01250   0.01890   0.02130   0.00680  -0.00130  -0.00350
O76       0.01360   0.00760   0.02000  -0.00010   0.00220   0.00210
O77       0.00810   0.00960   0.02440  -0.00020  -0.00060  -0.00270
O78       0.01700   0.01240   0.02290  -0.00140  -0.00400   0.00600
O79       0.02240   0.01900   0.01770   0.00050   0.00620   0.00030
O80       0.02490   0.01760   0.02960   0.00390   0.00360   0.00140
O81       0.01090   0.02340   0.02300   0.00180  -0.00140   0.00060
C82       0.01360   0.00860   0.01500  -0.00020  -0.00020   0.00250
C83       0.02100   0.02200   0.01900  -0.00420  -0.00450  -0.00550
Sm93      0.00770   0.00980   0.01510   0.00012  -0.00048  -0.00099
P94       0.00960   0.00980   0.01460  -0.00030  -0.00120  -0.00080
P95       0.00720   0.00740   0.01480   0.00040   0.00010   0.00080
O96       0.01520   0.00890   0.02110  -0.00120  -0.00100   0.00370
O97       0.01570   0.01730   0.01590   0.00440   0.00070  -0.00070
O98       0.01250   0.01890   0.02130  -0.00680   0.00130  -0.00350
O99       0.01360   0.00760   0.02000   0.00010  -0.00220   0.00210
O100      0.00810   0.00960   0.02440   0.00020   0.00060  -0.00270
O101      0.01700   0.01240   0.02290   0.00140   0.00400   0.00600
O102      0.02240   0.01900   0.01770  -0.00050  -0.00620   0.00030
O103      0.02490   0.01760   0.02960  -0.00390  -0.00360   0.00140
O104      0.01090   0.02340   0.02300  -0.00180   0.00140   0.00060
C105      0.01360   0.00860   0.01500   0.00020   0.00020   0.00250
C106      0.02100   0.02200   0.01900   0.00420   0.00450  -0.00550
Sm116     0.00770   0.00980   0.01510   0.00012   0.00048   0.00099
P117      0.00960   0.00980   0.01460  -0.00030   0.00120   0.00080
P118      0.00720   0.00740   0.01480   0.00040  -0.00010  -0.00080
O119      0.01520   0.00890   0.02110  -0.00120   0.00100  -0.00370
O120      0.01570   0.01730   0.01590   0.00440  -0.00070   0.00070
O121      0.01250   0.01890   0.02130  -0.00680  -0.00130   0.00350
O122      0.01360   0.00760   0.02000   0.00010   0.00220  -0.00210
O123      0.00810   0.00960   0.02440   0.00020  -0.00060   0.00270
O124      0.01700   0.01240   0.02290   0.00140  -0.00400  -0.00600
O125      0.02240   0.01900   0.01770  -0.00050   0.00620  -0.00030
O126      0.02490   0.01760   0.02960  -0.00390   0.00360  -0.00140
O127      0.01090   0.02340   0.02300  -0.00180  -0.00140  -0.00060
C128      0.01360   0.00860   0.01500   0.00020  -0.00020  -0.00250
C129      0.02100   0.02200   0.01900   0.00420  -0.00450   0.00550
Sm139     0.00770   0.00980   0.01510  -0.00012  -0.00048   0.00099
P140      0.00960   0.00980   0.01460   0.00030  -0.00120   0.00080
P141      0.00720   0.00740   0.01480  -0.00040   0.00010  -0.00080
O142      0.01520   0.00890   0.02110   0.00120  -0.00100  -0.00370
O143      0.01570   0.01730   0.01590  -0.00440   0.00070   0.00070
O144      0.01250   0.01890   0.02130   0.00680   0.00130   0.00350
O145      0.01360   0.00760   0.02000  -0.00010  -0.00220  -0.00210
O146      0.00810   0.00960   0.02440  -0.00020   0.00060   0.00270
O147      0.01700   0.01240   0.02290  -0.00140   0.00400  -0.00600
O148      0.02240   0.01900   0.01770   0.00050  -0.00620  -0.00030
O149      0.02490   0.01760   0.02960   0.00390  -0.00360  -0.00140
O150      0.01090   0.02340   0.02300   0.00180   0.00140  -0.00060
C151      0.01360   0.00860   0.01500  -0.00020   0.00020  -0.00250
C152      0.02100   0.02200   0.01900  -0.00420   0.00450   0.00550
Sm162     0.00770   0.00980   0.01510  -0.00012   0.00048  -0.00099
P163      0.00960   0.00980   0.01460   0.00030   0.00120  -0.00080
P164      0.00720   0.00740   0.01480  -0.00040  -0.00010   0.00080
O165      0.01520   0.00890   0.02110   0.00120   0.00100   0.00370
O166      0.01570   0.01730   0.01590  -0.00440  -0.00070  -0.00070
O167      0.01250   0.01890   0.02130   0.00680  -0.00130  -0.00350
O168      0.01360   0.00760   0.02000  -0.00010   0.00220   0.00210
O169      0.00810   0.00960   0.02440  -0.00020  -0.00060  -0.00270
O170      0.01700   0.01240   0.02290  -0.00140  -0.00400   0.00600
O171      0.02240   0.01900   0.01770   0.00050   0.00620   0.00030
O172      0.02490   0.01760   0.02960   0.00390   0.00360   0.00140
O173      0.01090   0.02340   0.02300   0.00180  -0.00140   0.00060
C174      0.01360   0.00860   0.01500  -0.00020  -0.00020   0.00250
C175      0.02100   0.02200   0.01900  -0.00420  -0.00450  -0.00550
loop_
_geom_bond_atom_site_label_1
_geom_bond_atom_site_label_2
_geom_bond_distance
_geom_bond_site_symmetry_2
_ccdc_geom_bond_type
Sm1    O4      2.414   .     S
Sm1    O7      2.464   .     S
Sm1    O11     2.647   1_545 S
Sm1    O12     2.507   .     S
Sm1    O166    2.323   1_545 S
Sm1    O75     2.339   .     S
Sm1    O99     2.485   1_645 S
Sm1    O169    2.460   1_545 S
P2     O4      1.501   .     S
P2     O8      1.502   .     S
P2     O10     1.580   .     S
P2     C13     1.834   .     S
P3     O5      1.509   .     S
P3     O6      1.512   1_655 S
P3     O7      1.539   .     S
P3     C13     1.843   .     S
O5     Sm162   2.323   .     S
O6     P3      1.512   1_455 S
O6     Sm70    2.339   .     S
O7     Sm93    2.485   1_645 S
O8     Sm162   2.460   .     S
O9     C13     1.467   .     S
O9     H18     0.855   .     S
O10    H19     0.783   .     S
O11    Sm1     2.647   1_565 S
O11    H20     0.635   .     S
O11    H21     0.780   .     S
O12    H22     0.702   .     S
O12    H23     0.729   .     S
C13    C14     1.516   .     S
C14    H15     0.959   .     S
C14    H16     0.960   .     S
C14    H17     0.959   1_655 S
H17    C14     0.959   1_455 S
Sm24   O27     2.414   .     S
Sm24   O30     2.464   .     S
Sm24   O34     2.647   1_565 S
Sm24   O35     2.507   .     S
Sm24   O143    2.323   1_565 S
Sm24   O52     2.339   .     S
Sm24   O122    2.485   1_565 S
Sm24   O146    2.460   1_565 S
P25    O27     1.501   .     S
P25    O31     1.502   .     S
P25    O33     1.580   .     S
P25    C36     1.834   .     S
P26    O28     1.509   .     S
P26    O29     1.512   .     S
P26    O30     1.539   .     S
P26    C36     1.843   .     S
O28    Sm139   2.323   .     S
O29    Sm47    2.339   .     S
O30    Sm116   2.485   1_565 S
O31    Sm139   2.460   .     S
O32    C36     1.467   .     S
O32    H41     0.855   .     S
O33    H42     0.783   .     S
O34    Sm24    2.647   1_545 S
O34    H43     0.635   .     S
O34    H44     0.780   .     S
O35    H45     0.702   .     S
O35    H46     0.729   .     S
C36    C37     1.516   .     S
C37    H38     0.959   .     S
C37    H39     0.960   .     S
C37    H40     0.959   .     S
Sm47   O50     2.414   .     S
Sm47   O53     2.464   .     S
Sm47   O57     2.647   .     S
Sm47   O58     2.507   .     S
Sm47   O120    2.323   .     S
Sm47   O145    2.485   1_455 S
Sm47   O123    2.460   .     S
P48    O50     1.501   .     S
P48    O54     1.502   .     S
P48    O56     1.580   .     S
P48    C59     1.834   .     S
P49    O51     1.509   .     S
P49    O52     1.512   1_455 S
P49    O53     1.539   .     S
P49    C59     1.843   .     S
O51    Sm116   2.323   1_565 S
O52    P49     1.512   1_655 S
O53    Sm139   2.485   1_455 S
O54    Sm116   2.460   1_565 S
O55    C59     1.467   .     S
O55    H64     0.855   .     S
O56    H65     0.783   .     S
O57    H66     0.635   .     S
O57    H67     0.780   .     S
O58    H68     0.702   .     S
O58    H69     0.729   .     S
C59    C60     1.516   .     S
C60    H61     0.959   .     S
C60    H62     0.960   .     S
C60    H63     0.959   1_455 S
H63    C60     0.959   1_655 S
Sm70   O73     2.414   .     S
Sm70   O76     2.464   .     S
Sm70   O80     2.647   .     S
Sm70   O81     2.507   .     S
Sm70   O97     2.323   .     S
Sm70   O168    2.485   .     S
Sm70   O100    2.460   .     S
P71    O73     1.501   .     S
P71    O77     1.502   .     S
P71    O79     1.580   .     S
P71    C82     1.834   .     S
P72    O74     1.509   .     S
P72    O75     1.512   .     S
P72    O76     1.539   .     S
P72    C82     1.843   .     S
O74    Sm93    2.323   1_545 S
O76    Sm162   2.485   .     S
O77    Sm93    2.460   1_545 S
O78    C82     1.467   .     S
O78    H87     0.855   .     S
O79    H88     0.783   .     S
O80    H89     0.635   .     S
O80    H90     0.780   .     S
O81    H91     0.702   .     S
O81    H92     0.729   .     S
C82    C83     1.516   .     S
C83    H84     0.959   .     S
C83    H85     0.960   .     S
C83    H86     0.959   .     S
Sm93   O96     2.414   .     S
Sm93   O99     2.464   .     S
Sm93   O103    2.647   1_565 S
Sm93   O104    2.507   .     S
Sm93   O74     2.323   1_565 S
Sm93   O167    2.339   .     S
Sm93   O7      2.485   1_465 S
Sm93   O77     2.460   1_565 S
P94    O96     1.501   .     S
P94    O100    1.502   .     S
P94    O102    1.580   .     S
P94    C105    1.834   .     S
P95    O97     1.509   .     S
P95    O98     1.512   1_455 S
P95    O99     1.539   .     S
P95    C105    1.843   .     S
O98    P95     1.512   1_655 S
O98    Sm162   2.339   .     S
O99    Sm1     2.485   1_465 S
O101   C105    1.467   .     S
O101   H110    0.855   .     S
O102   H111    0.783   .     S
O103   Sm93    2.647   1_545 S
O103   H112    0.635   .     S
O103   H113    0.780   .     S
O104   H114    0.702   .     S
O104   H115    0.729   .     S
C105   C106    1.516   .     S
C106   H107    0.959   .     S
C106   H108    0.960   .     S
C106   H109    0.959   1_455 S
H109   C106    0.959   1_655 S
Sm116  O119    2.414   .     S
Sm116  O122    2.464   .     S
Sm116  O126    2.647   1_545 S
Sm116  O127    2.507   .     S
Sm116  O51     2.323   1_545 S
Sm116  O144    2.339   .     S
Sm116  O30     2.485   1_545 S
Sm116  O54     2.460   1_545 S
P117   O119    1.501   .     S
P117   O123    1.502   .     S
P117   O125    1.580   .     S
P117   C128    1.834   .     S
P118   O120    1.509   .     S
P118   O121    1.512   .     S
P118   O122    1.539   .     S
P118   C128    1.843   .     S
O121   Sm139   2.339   .     S
O122   Sm24    2.485   1_545 S
O124   C128    1.467   .     S
O124   H133    0.855   .     S
O125   H134    0.783   .     S
O126   Sm116   2.647   1_565 S
O126   H135    0.635   .     S
O126   H136    0.780   .     S
O127   H137    0.702   .     S
O127   H138    0.729   .     S
C128   C129    1.516   .     S
C129   H130    0.959   .     S
C129   H131    0.960   .     S
C129   H132    0.959   .     S
Sm139  O142    2.414   .     S
Sm139  O145    2.464   .     S
Sm139  O149    2.647   .     S
Sm139  O150    2.507   .     S
Sm139  O53     2.485   1_655 S
P140   O142    1.501   .     S
P140   O146    1.502   .     S
P140   O148    1.580   .     S
P140   C151    1.834   .     S
P141   O143    1.509   .     S
P141   O144    1.512   1_655 S
P141   O145    1.539   .     S
P141   C151    1.843   .     S
O143   Sm24    2.323   1_545 S
O144   P141    1.512   1_455 S
O145   Sm47    2.485   1_655 S
O146   Sm24    2.460   1_545 S
O147   C151    1.467   .     S
O147   H156    0.855   .     S
O148   H157    0.783   .     S
O149   H158    0.635   .     S
O149   H159    0.780   .     S
O150   H160    0.702   .     S
O150   H161    0.729   .     S
C151   C152    1.516   .     S
C152   H153    0.959   .     S
C152   H154    0.960   .     S
C152   H155    0.959   1_655 S
H155   C152    0.959   1_455 S
Sm162  O165    2.414   .     S
Sm162  O168    2.464   .     S
Sm162  O172    2.647   .     S
Sm162  O173    2.507   .     S
P163   O165    1.501   .     S
P163   O169    1.502   .     S
P163   O171    1.580   .     S
P163   C174    1.834   .     S
P164   O166    1.509   .     S
P164   O167    1.512   .     S
P164   O168    1.539   .     S
P164   C174    1.843   .     S
O166   Sm1     2.323   1_565 S
O169   Sm1     2.460   1_565 S
O170   C174    1.467   .     S
O170   H179    0.855   .     S
O171   H180    0.783   .     S
O172   H181    0.635   .     S
O172   H182    0.780   .     S
O173   H183    0.702   .     S
O173   H184    0.729   .     S
C174   C175    1.516   .     S
C175   H176    0.959   .     S
C175   H177    0.960   .     S
C175   H178    0.959   .     S
