data_DIGMUE_FSR
_audit_creation_date              2024-06-11
_audit_creation_method            'Materials Studio'
_symmetry_space_group_name_H-M    'P1'
_symmetry_Int_Tables_number       1
_symmetry_cell_setting            triclinic
loop_
_symmetry_equiv_pos_as_xyz
  x,y,z
_cell_length_a                    8.5082
_cell_length_b                    13.4745
_cell_length_c                    12.3451
_cell_angle_alpha                 90.0000
_cell_angle_beta                  106.7210
_cell_angle_gamma                 90.0000
loop_
_atom_site_label
_atom_site_type_symbol
_atom_site_fract_x
_atom_site_fract_y
_atom_site_fract_z
_atom_site_U_iso_or_equiv
_atom_site_adp_type
_atom_site_occupancy
Cu1    Cu    0.95411   0.25093   0.71716   0.02837  Uani   1.00
O2     O    -0.11770   0.63500   0.26141   0.04207  Uani   1.00
O3     O    -0.21840   0.53050   0.36590   0.04696  Uani   1.00
O4     O    -0.21310   0.51860   0.57410   0.05572  Uani   1.00
H5     H    -0.21800   0.52210   0.50690   0.08400  Uiso   1.00
O6     O    -0.10930   0.60830   0.72880   0.04816  Uani   1.00
N7     N     0.02050   0.75008   0.43720   0.02589  Uani   1.00
N8     N     0.02950   0.74351   0.61890   0.02326  Uani   1.00
N9     N     0.48670   0.13360   0.60250   0.03121  Uani   1.00
N10    N     0.71560   0.22030   0.65880   0.03130  Uani   1.00
C11    C    -0.13000   0.59440   0.62810   0.03742  Uani   1.00
C12    C    -0.14120   0.60560   0.35330   0.03495  Uani   1.00
C13    C    -0.06020   0.66430   0.56430   0.02560  Uani   1.00
C14    C    -0.06550   0.66940   0.45260   0.02609  Uani   1.00
C15    C     0.07740   0.79410   0.53940   0.02348  Uani   1.00
C16    C     0.17700   0.88430   0.55890   0.02678  Uani   1.00
C17    C     0.15890   0.95480   0.47410   0.03223  Uani   1.00
H18    H     0.07820   0.94580   0.40570   0.03900  Uiso   1.00
C19    C     0.29500   0.90240   0.66080   0.04386  Uani   1.00
H20    H     0.30750   0.85730   0.71980   0.05300  Uiso   1.00
C21    C     0.39350   0.98480   0.67730   0.04422  Uani   1.00
H22    H     0.47050   0.99580   0.74690   0.05300  Uiso   1.00
C23    C     0.37740   0.05140   0.58980   0.02985  Uani   1.00
C24    C     0.25690   0.03730   0.48870   0.03322  Uani   1.00
H25    H     0.24230   0.08370   0.43090   0.04000  Uiso   1.00
C26    C     0.64090   0.13920   0.67530   0.03171  Uani   1.00
H27    H     0.68710   0.09160   0.72960   0.03800  Uiso   1.00
C28    C     0.46560   0.21620   0.53640   0.04508  Uani   1.00
H29    H     0.37240   0.23270   0.47820   0.05400  Uiso   1.00
C30    C     0.60510   0.26980   0.57090   0.04273  Uani   1.00
H31    H     0.62410   0.33030   0.54060   0.05100  Uiso   1.00
Cu32   Cu    0.04589   0.75093   0.78284   0.02837  Uani   1.00
O33    O     1.11770   0.13500   0.23859   0.04207  Uani   1.00
O34    O     1.21840   0.03050   0.13410   0.04696  Uani   1.00
O35    O     1.21310   0.01860   0.92590   0.05572  Uani   1.00
H36    H     1.21800   0.02210   0.99310   0.08400  Uiso   1.00
O37    O     1.10930   0.10830   0.77120   0.04816  Uani   1.00
N38    N     0.97950   0.25008   0.06280   0.02589  Uani   1.00
N39    N     0.97050   0.24351   0.88110   0.02326  Uani   1.00
N40    N     0.51330   0.63360   0.89750   0.03121  Uani   1.00
N41    N     0.28440   0.72030   0.84120   0.03130  Uani   1.00
C42    C     1.13000   0.09440   0.87190   0.03742  Uani   1.00
C43    C     1.14120   0.10560   0.14670   0.03495  Uani   1.00
C44    C     1.06020   0.16430   0.93570   0.02560  Uani   1.00
C45    C     1.06550   0.16940   0.04740   0.02609  Uani   1.00
C46    C     0.92260   0.29410   0.96060   0.02348  Uani   1.00
C47    C     0.82300   0.38430   0.94110   0.02678  Uani   1.00
C48    C     0.84110   0.45480   0.02590   0.03223  Uani   1.00
H49    H     0.92180   0.44580   0.09430   0.03900  Uiso   1.00
C50    C     0.70500   0.40240   0.83920   0.04386  Uani   1.00
H51    H     0.69250   0.35730   0.78020   0.05300  Uiso   1.00
C52    C     0.60650   0.48480   0.82270   0.04422  Uani   1.00
H53    H     0.52950   0.49580   0.75310   0.05300  Uiso   1.00
C54    C     0.62260   0.55140   0.91020   0.02985  Uani   1.00
C55    C     0.74310   0.53730   0.01130   0.03322  Uani   1.00
H56    H     0.75770   0.58370   0.06910   0.04000  Uiso   1.00
C57    C     0.35910   0.63920   0.82470   0.03171  Uani   1.00
H58    H     0.31290   0.59160   0.77040   0.03800  Uiso   1.00
C59    C     0.53440   0.71620   0.96360   0.04508  Uani   1.00
H60    H     0.62760   0.73270   0.02180   0.05400  Uiso   1.00
C61    C     0.39490   0.76980   0.92910   0.04273  Uani   1.00
H62    H     0.37590   0.83030   0.95940   0.05100  Uiso   1.00
Cu63   Cu    0.04589   0.74907   0.28284   0.02837  Uani   1.00
O64    O     1.11770   0.36500   0.73859   0.04207  Uani   1.00
O65    O     1.21840   0.46950   0.63410   0.04696  Uani   1.00
O66    O     1.21310   0.48140   0.42590   0.05572  Uani   1.00
H67    H     1.21800   0.47790   0.49310   0.08400  Uiso   1.00
O68    O     1.10930   0.39170   0.27120   0.04816  Uani   1.00
N69    N     0.97950   0.24992   0.56280   0.02589  Uani   1.00
N70    N     0.97050   0.25649   0.38110   0.02326  Uani   1.00
N71    N     0.51330   0.86640   0.39750   0.03121  Uani   1.00
N72    N     0.28440   0.77970   0.34120   0.03130  Uani   1.00
C73    C     1.13000   0.40560   0.37190   0.03742  Uani   1.00
C74    C     1.14120   0.39440   0.64670   0.03495  Uani   1.00
C75    C     1.06020   0.33570   0.43570   0.02560  Uani   1.00
C76    C     1.06550   0.33060   0.54740   0.02609  Uani   1.00
C77    C     0.92260   0.20590   0.46060   0.02348  Uani   1.00
C78    C     0.82300   0.11570   0.44110   0.02678  Uani   1.00
C79    C     0.84110   0.04520   0.52590   0.03223  Uani   1.00
H80    H     0.92180   0.05420   0.59430   0.03900  Uiso   1.00
C81    C     0.70500   0.09760   0.33920   0.04386  Uani   1.00
H82    H     0.69250   0.14270   0.28020   0.05300  Uiso   1.00
C83    C     0.60650   0.01520   0.32270   0.04422  Uani   1.00
H84    H     0.52950   0.00420   0.25310   0.05300  Uiso   1.00
C85    C     0.62260   0.94860   0.41020   0.02985  Uani   1.00
C86    C     0.74310   0.96270   0.51130   0.03322  Uani   1.00
H87    H     0.75770   0.91630   0.56910   0.04000  Uiso   1.00
C88    C     0.35910   0.86080   0.32470   0.03171  Uani   1.00
H89    H     0.31290   0.90840   0.27040   0.03800  Uiso   1.00
C90    C     0.53440   0.78380   0.46360   0.04508  Uani   1.00
H91    H     0.62760   0.76730   0.52180   0.05400  Uiso   1.00
C92    C     0.39490   0.73020   0.42910   0.04273  Uani   1.00
H93    H     0.37590   0.66970   0.45940   0.05100  Uiso   1.00
Cu94   Cu    0.95411   0.24907   0.21716   0.02837  Uani   1.00
O95    O    -0.11770   0.86500   0.76141   0.04207  Uani   1.00
O96    O    -0.21840   0.96950   0.86590   0.04696  Uani   1.00
O97    O    -0.21310   0.98140   0.07410   0.05572  Uani   1.00
H98    H    -0.21800   0.97790   0.00690   0.08400  Uiso   1.00
O99    O    -0.10930   0.89170   0.22880   0.04816  Uani   1.00
N100   N     0.02050   0.74992   0.93720   0.02589  Uani   1.00
N101   N     0.02950   0.75649   0.11890   0.02326  Uani   1.00
N102   N     0.48670   0.36640   0.10250   0.03121  Uani   1.00
N103   N     0.71560   0.27970   0.15880   0.03130  Uani   1.00
C104   C    -0.13000   0.90560   0.12810   0.03742  Uani   1.00
C105   C    -0.14120   0.89440   0.85330   0.03495  Uani   1.00
C106   C    -0.06020   0.83570   0.06430   0.02560  Uani   1.00
C107   C    -0.06550   0.83060   0.95260   0.02609  Uani   1.00
C108   C     0.07740   0.70590   0.03940   0.02348  Uani   1.00
C109   C     0.17700   0.61570   0.05890   0.02678  Uani   1.00
C110   C     0.15890   0.54520   0.97410   0.03223  Uani   1.00
H111   H     0.07820   0.55420   0.90570   0.03900  Uiso   1.00
C112   C     0.29500   0.59760   0.16080   0.04386  Uani   1.00
H113   H     0.30750   0.64270   0.21980   0.05300  Uiso   1.00
C114   C     0.39350   0.51520   0.17730   0.04422  Uani   1.00
H115   H     0.47050   0.50420   0.24690   0.05300  Uiso   1.00
C116   C     0.37740   0.44860   0.08980   0.02985  Uani   1.00
C117   C     0.25690   0.46270   0.98870   0.03322  Uani   1.00
H118   H     0.24230   0.41630   0.93090   0.04000  Uiso   1.00
C119   C     0.64090   0.36080   0.17530   0.03171  Uani   1.00
H120   H     0.68710   0.40840   0.22960   0.03800  Uiso   1.00
C121   C     0.46560   0.28380   0.03640   0.04508  Uani   1.00
H122   H     0.37240   0.26730   0.97820   0.05400  Uiso   1.00
C123   C     0.60510   0.23020   0.07090   0.04273  Uani   1.00
H124   H     0.62410   0.16970   0.04060   0.05100  Uiso   1.00
loop_
_atom_site_aniso_label
_atom_site_aniso_U_11
_atom_site_aniso_U_22
_atom_site_aniso_U_33
_atom_site_aniso_U_12
_atom_site_aniso_U_13
_atom_site_aniso_U_23
Cu1       0.03510   0.04050   0.01080  -0.00456   0.00867  -0.00226
O2        0.05460   0.05810   0.01410  -0.01980   0.01080  -0.00770
O3        0.06470   0.04930   0.02690  -0.02750   0.01320  -0.01180
O4        0.08160   0.05950   0.02820  -0.03560   0.01920  -0.00500
O6        0.06880   0.05880   0.01950  -0.02570   0.01690  -0.00030
N7        0.03390   0.03330   0.01170  -0.00300   0.00850  -0.00060
N8        0.02960   0.02920   0.01170  -0.00220   0.00710  -0.00040
N9        0.03390   0.03240   0.02560  -0.00080   0.00580   0.00310
N10       0.03790   0.03640   0.02100  -0.00260   0.01070  -0.00340
C11       0.04900   0.04400   0.01960  -0.01210   0.01040   0.00080
C12       0.03960   0.04600   0.01950  -0.00860   0.00890  -0.00770
C13       0.03010   0.03150   0.01610  -0.00430   0.00810   0.00020
C14       0.03100   0.03260   0.01410  -0.00320   0.00560  -0.00200
C15       0.02830   0.03220   0.01110   0.00310   0.00750   0.00000
C16       0.03340   0.03260   0.01700  -0.00100   0.01150  -0.00210
C17       0.03460   0.04000   0.01930  -0.00240   0.00330  -0.00280
C19       0.05900   0.04800   0.01980  -0.01300   0.00370   0.01180
C21       0.05400   0.05000   0.02050  -0.01500  -0.00230   0.00390
C23       0.03050   0.03470   0.02550   0.00110   0.00990   0.00080
C24       0.03880   0.03600   0.02500  -0.00160   0.00940   0.00590
C26       0.04100   0.03400   0.02020   0.00250   0.00890   0.00190
C28       0.03600   0.04700   0.04500  -0.00040   0.00010   0.01800
C30       0.04600   0.04200   0.03600  -0.00220   0.00510   0.01080
Cu32      0.03510   0.04050   0.01080   0.00456   0.00867   0.00226
O33       0.05460   0.05810   0.01410   0.01980   0.01080   0.00770
O34       0.06470   0.04930   0.02690   0.02750   0.01320   0.01180
O35       0.08160   0.05950   0.02820   0.03560   0.01920   0.00500
O37       0.06880   0.05880   0.01950   0.02570   0.01690   0.00030
N38       0.03390   0.03330   0.01170   0.00300   0.00850   0.00060
N39       0.02960   0.02920   0.01170   0.00220   0.00710   0.00040
N40       0.03390   0.03240   0.02560   0.00080   0.00580  -0.00310
N41       0.03790   0.03640   0.02100   0.00260   0.01070   0.00340
C42       0.04900   0.04400   0.01960   0.01210   0.01040  -0.00080
C43       0.03960   0.04600   0.01950   0.00860   0.00890   0.00770
C44       0.03010   0.03150   0.01610   0.00430   0.00810  -0.00020
C45       0.03100   0.03260   0.01410   0.00320   0.00560   0.00200
C46       0.02830   0.03220   0.01110  -0.00310   0.00750  -0.00000
C47       0.03340   0.03260   0.01700   0.00100   0.01150   0.00210
C48       0.03460   0.04000   0.01930   0.00240   0.00330   0.00280
C50       0.05900   0.04800   0.01980   0.01300   0.00370  -0.01180
C52       0.05400   0.05000   0.02050   0.01500  -0.00230  -0.00390
C54       0.03050   0.03470   0.02550  -0.00110   0.00990  -0.00080
C55       0.03880   0.03600   0.02500   0.00160   0.00940  -0.00590
C57       0.04100   0.03400   0.02020  -0.00250   0.00890  -0.00190
C59       0.03600   0.04700   0.04500   0.00040   0.00010  -0.01800
C61       0.04600   0.04200   0.03600   0.00220   0.00510  -0.01080
Cu63      0.03510   0.04050   0.01080  -0.00456   0.00867  -0.00226
O64       0.05460   0.05810   0.01410  -0.01980   0.01080  -0.00770
O65       0.06470   0.04930   0.02690  -0.02750   0.01320  -0.01180
O66       0.08160   0.05950   0.02820  -0.03560   0.01920  -0.00500
O68       0.06880   0.05880   0.01950  -0.02570   0.01690  -0.00030
N69       0.03390   0.03330   0.01170  -0.00300   0.00850  -0.00060
N70       0.02960   0.02920   0.01170  -0.00220   0.00710  -0.00040
N71       0.03390   0.03240   0.02560  -0.00080   0.00580   0.00310
N72       0.03790   0.03640   0.02100  -0.00260   0.01070  -0.00340
C73       0.04900   0.04400   0.01960  -0.01210   0.01040   0.00080
C74       0.03960   0.04600   0.01950  -0.00860   0.00890  -0.00770
C75       0.03010   0.03150   0.01610  -0.00430   0.00810   0.00020
C76       0.03100   0.03260   0.01410  -0.00320   0.00560  -0.00200
C77       0.02830   0.03220   0.01110   0.00310   0.00750   0.00000
C78       0.03340   0.03260   0.01700  -0.00100   0.01150  -0.00210
C79       0.03460   0.04000   0.01930  -0.00240   0.00330  -0.00280
C81       0.05900   0.04800   0.01980  -0.01300   0.00370   0.01180
C83       0.05400   0.05000   0.02050  -0.01500  -0.00230   0.00390
C85       0.03050   0.03470   0.02550   0.00110   0.00990   0.00080
C86       0.03880   0.03600   0.02500  -0.00160   0.00940   0.00590
C88       0.04100   0.03400   0.02020   0.00250   0.00890   0.00190
C90       0.03600   0.04700   0.04500  -0.00040   0.00010   0.01800
C92       0.04600   0.04200   0.03600  -0.00220   0.00510   0.01080
Cu94      0.03510   0.04050   0.01080   0.00456   0.00867   0.00226
O95       0.05460   0.05810   0.01410   0.01980   0.01080   0.00770
O96       0.06470   0.04930   0.02690   0.02750   0.01320   0.01180
O97       0.08160   0.05950   0.02820   0.03560   0.01920   0.00500
O99       0.06880   0.05880   0.01950   0.02570   0.01690   0.00030
N100      0.03390   0.03330   0.01170   0.00300   0.00850   0.00060
N101      0.02960   0.02920   0.01170   0.00220   0.00710   0.00040
N102      0.03390   0.03240   0.02560   0.00080   0.00580  -0.00310
N103      0.03790   0.03640   0.02100   0.00260   0.01070   0.00340
C104      0.04900   0.04400   0.01960   0.01210   0.01040  -0.00080
C105      0.03960   0.04600   0.01950   0.00860   0.00890   0.00770
C106      0.03010   0.03150   0.01610   0.00430   0.00810  -0.00020
C107      0.03100   0.03260   0.01410   0.00320   0.00560   0.00200
C108      0.02830   0.03220   0.01110  -0.00310   0.00750  -0.00000
C109      0.03340   0.03260   0.01700   0.00100   0.01150   0.00210
C110      0.03460   0.04000   0.01930   0.00240   0.00330   0.00280
C112      0.05900   0.04800   0.01980   0.01300   0.00370  -0.01180
C114      0.05400   0.05000   0.02050   0.01500  -0.00230  -0.00390
C116      0.03050   0.03470   0.02550  -0.00110   0.00990  -0.00080
C117      0.03880   0.03600   0.02500   0.00160   0.00940  -0.00590
C119      0.04100   0.03400   0.02020  -0.00250   0.00890  -0.00190
C121      0.03600   0.04700   0.04500   0.00040   0.00010  -0.01800
C123      0.04600   0.04200   0.03600   0.00220   0.00510  -0.01080
loop_
_geom_bond_atom_site_label_1
_geom_bond_atom_site_label_2
_geom_bond_distance
_geom_bond_site_symmetry_2
_ccdc_geom_bond_type
Cu1    N10     1.992   .     S
Cu1    O64     2.039   .     S
Cu1    O37     2.318   .     S
Cu1    N69     1.979   .     S
Cu1    N39     1.991   .     S
O2     C12     1.271   .     S
O2     Cu63    2.039   .     S
O3     C12     1.240   .     S
O4     H5      0.820   .     S
O4     C11     1.310   .     S
O6     C11     1.219   .     S
O6     Cu32    2.318   .     S
N7     C14     1.354   .     S
N7     C15     1.351   .     S
N7     Cu63    1.979   .     S
N8     C13     1.371   .     S
N8     C15     1.351   .     S
N8     Cu32    1.991   .     S
N9     C23     1.426   .     S
N9     C26     1.362   .     S
N9     C28     1.361   .     S
N10    C26     1.309   .     S
N10    C30     1.385   .     S
C11    C13     1.459   .     S
C12    C14     1.484   .     S
C13    C14     1.368   .     S
C15    C16     1.461   .     S
C16    C17     1.389   .     S
C16    C19     1.387   .     S
C17    H18     0.930   .     S
C17    C24     1.370   1_565 S
C19    H20     0.931   .     S
C19    C21     1.371   .     S
C21    H22     0.930   .     S
C21    C23     1.380   1_565 S
C23    C21     1.380   1_545 S
C23    C24     1.382   .     S
C24    C17     1.370   1_545 S
C24    H25     0.930   .     S
C26    H27     0.929   .     S
C28    H29     0.931   .     S
C28    C30     1.349   .     S
C30    H31     0.930   .     S
Cu32   N41     1.992   .     S
Cu32   O95     2.039   .     S
Cu32   N100    1.979   .     S
O33    C43     1.271   .     S
O33    Cu94    2.039   .     S
O34    C43     1.240   .     S
O35    H36     0.820   .     S
O35    C42     1.310   .     S
O37    C42     1.219   .     S
N38    C45     1.354   .     S
N38    C46     1.351   1_554 S
N38    Cu94    1.979   .     S
N39    C44     1.371   .     S
N39    C46     1.351   .     S
N40    C54     1.426   .     S
N40    C57     1.362   .     S
N40    C59     1.361   .     S
N41    C57     1.309   .     S
N41    C61     1.385   .     S
C42    C44     1.459   .     S
C43    C45     1.484   .     S
C44    C45     1.368   1_556 S
C45    C44     1.368   1_554 S
C46    N38     1.351   1_556 S
C46    C47     1.461   .     S
C47    C48     1.389   1_556 S
C47    C50     1.387   .     S
C48    C47     1.389   1_554 S
C48    H49     0.930   .     S
C48    C55     1.370   .     S
C50    H51     0.931   .     S
C50    C52     1.371   .     S
C52    H53     0.930   .     S
C52    C54     1.380   .     S
C54    C55     1.382   1_556 S
C55    H56     0.930   .     S
C55    C54     1.382   1_554 S
C57    H58     0.929   .     S
C59    H60     0.931   1_556 S
C59    C61     1.349   .     S
H60    C59     0.931   1_554 S
C61    H62     0.930   .     S
Cu63   N72     1.992   .     S
Cu63   O99     2.318   .     S
Cu63   N101    1.991   .     S
O64    C74     1.271   .     S
O65    C74     1.240   .     S
O66    H67     0.820   .     S
O66    C73     1.310   .     S
O68    C73     1.219   .     S
O68    Cu94    2.318   .     S
N69    C76     1.354   .     S
N69    C77     1.351   .     S
N70    C75     1.371   .     S
N70    C77     1.351   .     S
N70    Cu94    1.991   .     S
N71    C85     1.426   .     S
N71    C88     1.362   .     S
N71    C90     1.361   .     S
N72    C88     1.309   .     S
N72    C92     1.385   .     S
C73    C75     1.459   .     S
C74    C76     1.484   .     S
C75    C76     1.368   .     S
C77    C78     1.461   .     S
C78    C79     1.389   .     S
C78    C81     1.387   .     S
C79    H80     0.930   .     S
C79    C86     1.370   1_545 S
C81    H82     0.931   .     S
C81    C83     1.371   .     S
C83    H84     0.930   .     S
C83    C85     1.380   1_545 S
C85    C83     1.380   1_565 S
C85    C86     1.382   .     S
C86    C79     1.370   1_565 S
C86    H87     0.930   .     S
C88    H89     0.929   .     S
C90    H91     0.931   .     S
C90    C92     1.349   .     S
C92    H93     0.930   .     S
Cu94   N103    1.992   .     S
O95    C105    1.271   .     S
O96    C105    1.240   .     S
O97    H98     0.820   .     S
O97    C104    1.310   .     S
O99    C104    1.219   .     S
N100   C107    1.354   .     S
N100   C108    1.351   1_556 S
N101   C106    1.371   .     S
N101   C108    1.351   .     S
N102   C116    1.426   .     S
N102   C119    1.362   .     S
N102   C121    1.361   .     S
N103   C119    1.309   .     S
N103   C123    1.385   .     S
C104   C106    1.459   .     S
C105   C107    1.484   .     S
C106   C107    1.368   1_554 S
C107   C106    1.368   1_556 S
C108   N100    1.351   1_554 S
C108   C109    1.461   .     S
C109   C110    1.389   1_554 S
C109   C112    1.387   .     S
C110   C109    1.389   1_556 S
C110   H111    0.930   .     S
C110   C117    1.370   .     S
C112   H113    0.931   .     S
C112   C114    1.371   .     S
C114   H115    0.930   .     S
C114   C116    1.380   .     S
C116   C117    1.382   1_554 S
C117   H118    0.930   .     S
C117   C116    1.382   1_556 S
C119   H120    0.929   .     S
C121   H122    0.931   1_554 S
C121   C123    1.349   .     S
H122   C121    0.931   1_556 S
C123   H124    0.930   .     S
