data_DIJBEH_FSR
_audit_creation_date              2024-06-11
_audit_creation_method            'Materials Studio'
_symmetry_space_group_name_H-M    'P1'
_symmetry_Int_Tables_number       1
_symmetry_cell_setting            triclinic
loop_
_symmetry_equiv_pos_as_xyz
  x,y,z
_cell_length_a                    20.4353
_cell_length_b                    28.7511
_cell_length_c                    16.3952
_cell_angle_alpha                 90.0000
_cell_angle_beta                  109.8700
_cell_angle_gamma                 90.0000
loop_
_atom_site_label
_atom_site_type_symbol
_atom_site_fract_x
_atom_site_fract_y
_atom_site_fract_z
_atom_site_U_iso_or_equiv
_atom_site_adp_type
_atom_site_occupancy
C1     C     0.64520   0.61148   0.64060   0.00000  Uiso   1.00
C2     C     0.69460   0.64930   0.68620   0.00000  Uiso   1.00
C3     C     0.75490   0.63815   0.75250   0.00000  Uiso   1.00
H4     H     0.76405   0.60657   0.76957   0.00000  Uiso   1.00
C5     C     0.80280   0.67225   0.79500   0.00000  Uiso   1.00
C6     C     0.78790   0.71748   0.77070   0.00000  Uiso   1.00
C7     C     0.72900   0.72899   0.70700   0.00000  Uiso   1.00
H8     H     0.71977   0.76069   0.69077   0.00000  Uiso   1.00
C9     C     0.68100   0.69498   0.66420   0.00000  Uiso   1.00
H10    H     0.63902   0.70355   0.61985   0.00000  Uiso   1.00
C11    C     0.92820   0.88823   0.63910   0.00000  Uiso   1.00
C12    C     0.90200   0.85169   0.68330   0.00000  Uiso   1.00
C13    C     0.87200   0.86397   0.74290   0.00000  Uiso   1.00
H14    H     0.86781   0.89605   0.75409   0.00000  Uiso   1.00
C15    C     0.84720   0.83125   0.78790   0.00000  Uiso   1.00
C16    C     0.85420   0.78462   0.76880   0.00000  Uiso   1.00
C17    C     0.88310   0.77233   0.71040   0.00000  Uiso   1.00
H18    H     0.88764   0.74033   0.69888   0.00000  Uiso   1.00
C19    C     0.90650   0.80560   0.66680   0.00000  Uiso   1.00
H20    H     0.92602   0.79632   0.62447   0.00000  Uiso   1.00
O21    O     0.83450   0.75140   0.81690   0.00000  Uiso   1.00
O22    O     0.58842   0.62477   0.58630   0.00000  Uiso   1.00
O23    O     0.95679   0.87503   0.58520   0.00000  Uiso   1.00
O24    O     0.92085   0.93003   0.65760   0.00000  Uiso   1.00
O25    O     0.66331   0.57066   0.66050   0.00000  Uiso   1.00
O26    O     0.88070   0.60547   0.87710   0.00000  Uiso   1.00
O27    O     0.88280   0.67775   0.95590   0.00000  Uiso   1.00
O28    O     0.93770   0.67362   0.84870   0.00000  Uiso   1.00
O29    O     0.80300   0.89899   0.85440   0.00000  Uiso   1.00
O30    O     0.84930   0.83151   0.94510   0.00000  Uiso   1.00
O31    O     0.73755   0.82835   0.83110   0.00000  Uiso   1.00
H32    H     0.74100   0.79960   0.82439   0.00000  Uiso   1.00
O33    O     0.41227   0.54187   0.49780   0.00000  Uiso   1.00
O34    O     0.46917   0.54176   0.38440   0.00000  Uiso   1.00
S35    S     0.88266   0.65532   0.87604   0.00000  Uiso   1.00
S36    S     0.80610   0.84891   0.86156   0.00000  Uiso   1.00
C37    C     0.14520   0.11148   0.64060   0.00000  Uiso   1.00
C38    C     0.19460   0.14930   0.68620   0.00000  Uiso   1.00
C39    C     0.25490   0.13815   0.75250   0.00000  Uiso   1.00
H40    H     0.26405   0.10657   0.76957   0.00000  Uiso   1.00
C41    C     0.30280   0.17225   0.79500   0.00000  Uiso   1.00
C42    C     0.28790   0.21748   0.77070   0.00000  Uiso   1.00
C43    C     0.22900   0.22899   0.70700   0.00000  Uiso   1.00
H44    H     0.21977   0.26069   0.69077   0.00000  Uiso   1.00
C45    C     0.18100   0.19498   0.66420   0.00000  Uiso   1.00
H46    H     0.13902   0.20355   0.61985   0.00000  Uiso   1.00
C47    C     0.42820   0.38823   0.63910   0.00000  Uiso   1.00
C48    C     0.40200   0.35169   0.68330   0.00000  Uiso   1.00
C49    C     0.37200   0.36397   0.74290   0.00000  Uiso   1.00
H50    H     0.36781   0.39605   0.75409   0.00000  Uiso   1.00
C51    C     0.34720   0.33125   0.78790   0.00000  Uiso   1.00
C52    C     0.35420   0.28462   0.76880   0.00000  Uiso   1.00
C53    C     0.38310   0.27233   0.71040   0.00000  Uiso   1.00
H54    H     0.38764   0.24033   0.69888   0.00000  Uiso   1.00
C55    C     0.40650   0.30560   0.66680   0.00000  Uiso   1.00
H56    H     0.42603   0.29632   0.62447   0.00000  Uiso   1.00
O57    O     0.33450   0.25140   0.81690   0.00000  Uiso   1.00
O58    O     0.08842   0.12477   0.58630   0.00000  Uiso   1.00
O59    O     0.45679   0.37503   0.58520   0.00000  Uiso   1.00
O60    O     0.42085   0.43003   0.65760   0.00000  Uiso   1.00
O61    O     0.16331   0.07066   0.66050   0.00000  Uiso   1.00
O62    O     0.38070   0.10547   0.87710   0.00000  Uiso   1.00
O63    O     0.38280   0.17775   0.95590   0.00000  Uiso   1.00
O64    O     0.43770   0.17362   0.84870   0.00000  Uiso   1.00
O65    O     0.30300   0.39899   0.85440   0.00000  Uiso   1.00
O66    O     0.34930   0.33151   0.94510   0.00000  Uiso   1.00
O67    O     0.23755   0.32835   0.83110   0.00000  Uiso   1.00
H68    H     0.24100   0.29960   0.82439   0.00000  Uiso   1.00
O69    O     0.91227   0.04187   0.49780   0.00000  Uiso   1.00
O70    O     0.96917   0.04176   0.38440   0.00000  Uiso   1.00
S71    S     0.38266   0.15532   0.87604   0.00000  Uiso   1.00
S72    S     0.30610   0.34891   0.86156   0.00000  Uiso   1.00
C73    C     0.35480   0.61148   0.35940   0.00000  Uiso   1.00
C74    C     0.30540   0.64930   0.31380   0.00000  Uiso   1.00
C75    C     0.24510   0.63815   0.24750   0.00000  Uiso   1.00
H76    H     0.23595   0.60657   0.23043   0.00000  Uiso   1.00
C77    C     0.19720   0.67225   0.20500   0.00000  Uiso   1.00
C78    C     0.21210   0.71748   0.22930   0.00000  Uiso   1.00
C79    C     0.27100   0.72899   0.29300   0.00000  Uiso   1.00
H80    H     0.28023   0.76069   0.30923   0.00000  Uiso   1.00
C81    C     0.31900   0.69498   0.33580   0.00000  Uiso   1.00
H82    H     0.36098   0.70355   0.38015   0.00000  Uiso   1.00
C83    C     0.07180   0.88823   0.36090   0.00000  Uiso   1.00
C84    C     0.09800   0.85169   0.31670   0.00000  Uiso   1.00
C85    C     0.12800   0.86397   0.25710   0.00000  Uiso   1.00
H86    H     0.13219   0.89605   0.24591   0.00000  Uiso   1.00
C87    C     0.15280   0.83125   0.21210   0.00000  Uiso   1.00
C88    C     0.14580   0.78462   0.23120   0.00000  Uiso   1.00
C89    C     0.11690   0.77233   0.28960   0.00000  Uiso   1.00
H90    H     0.11236   0.74033   0.30112   0.00000  Uiso   1.00
C91    C     0.09350   0.80560   0.33320   0.00000  Uiso   1.00
H92    H     0.07398   0.79632   0.37553   0.00000  Uiso   1.00
O93    O     0.16550   0.75140   0.18310   0.00000  Uiso   1.00
O94    O     0.41158   0.62477   0.41370   0.00000  Uiso   1.00
O95    O     0.04321   0.87503   0.41480   0.00000  Uiso   1.00
O96    O     0.07915   0.93003   0.34240   0.00000  Uiso   1.00
O97    O     0.33669   0.57066   0.33950   0.00000  Uiso   1.00
O98    O     0.11930   0.60547   0.12290   0.00000  Uiso   1.00
O99    O     0.11720   0.67775   0.04410   0.00000  Uiso   1.00
O100   O     0.06230   0.67362   0.15130   0.00000  Uiso   1.00
O101   O     0.19700   0.89899   0.14560   0.00000  Uiso   1.00
O102   O     0.15070   0.83151   0.05490   0.00000  Uiso   1.00
O103   O     0.26245   0.82835   0.16890   0.00000  Uiso   1.00
H104   H     0.25900   0.79960   0.17561   0.00000  Uiso   1.00
O105   O     0.58773   0.54187   0.50220   0.00000  Uiso   1.00
O106   O     0.53083   0.54176   0.61560   0.00000  Uiso   1.00
S107   S     0.11734   0.65532   0.12396   0.00000  Uiso   1.00
S108   S     0.19390   0.84891   0.13844   0.00000  Uiso   1.00
C109   C     0.85480   0.11148   0.35940   0.00000  Uiso   1.00
C110   C     0.80540   0.14930   0.31380   0.00000  Uiso   1.00
C111   C     0.74510   0.13815   0.24750   0.00000  Uiso   1.00
H112   H     0.73595   0.10657   0.23043   0.00000  Uiso   1.00
C113   C     0.69720   0.17225   0.20500   0.00000  Uiso   1.00
C114   C     0.71210   0.21748   0.22930   0.00000  Uiso   1.00
C115   C     0.77100   0.22899   0.29300   0.00000  Uiso   1.00
H116   H     0.78023   0.26069   0.30923   0.00000  Uiso   1.00
C117   C     0.81900   0.19498   0.33580   0.00000  Uiso   1.00
H118   H     0.86098   0.20355   0.38015   0.00000  Uiso   1.00
C119   C     0.57180   0.38823   0.36090   0.00000  Uiso   1.00
C120   C     0.59800   0.35169   0.31670   0.00000  Uiso   1.00
C121   C     0.62800   0.36397   0.25710   0.00000  Uiso   1.00
H122   H     0.63219   0.39605   0.24591   0.00000  Uiso   1.00
C123   C     0.65280   0.33125   0.21210   0.00000  Uiso   1.00
C124   C     0.64580   0.28462   0.23120   0.00000  Uiso   1.00
C125   C     0.61690   0.27233   0.28960   0.00000  Uiso   1.00
H126   H     0.61236   0.24033   0.30112   0.00000  Uiso   1.00
C127   C     0.59350   0.30560   0.33320   0.00000  Uiso   1.00
H128   H     0.57398   0.29632   0.37553   0.00000  Uiso   1.00
O129   O     0.66550   0.25140   0.18310   0.00000  Uiso   1.00
O130   O     0.91158   0.12477   0.41370   0.00000  Uiso   1.00
O131   O     0.54321   0.37503   0.41480   0.00000  Uiso   1.00
O132   O     0.57915   0.43003   0.34240   0.00000  Uiso   1.00
O133   O     0.83669   0.07066   0.33950   0.00000  Uiso   1.00
O134   O     0.61930   0.10547   0.12290   0.00000  Uiso   1.00
O135   O     0.61720   0.17775   0.04410   0.00000  Uiso   1.00
O136   O     0.56230   0.17362   0.15130   0.00000  Uiso   1.00
O137   O     0.69700   0.39899   0.14560   0.00000  Uiso   1.00
O138   O     0.65070   0.33151   0.05490   0.00000  Uiso   1.00
O139   O     0.76245   0.32835   0.16890   0.00000  Uiso   1.00
H140   H     0.75900   0.29960   0.17561   0.00000  Uiso   1.00
O141   O     0.08773   0.04187   0.50220   0.00000  Uiso   1.00
O142   O     0.03083   0.04176   0.61560   0.00000  Uiso   1.00
S143   S     0.61734   0.15532   0.12396   0.00000  Uiso   1.00
S144   S     0.69390   0.34891   0.13844   0.00000  Uiso   1.00
C145   C     0.35480   0.38852   0.35940   0.00000  Uiso   1.00
C146   C     0.30540   0.35070   0.31380   0.00000  Uiso   1.00
C147   C     0.24510   0.36185   0.24750   0.00000  Uiso   1.00
H148   H     0.23595   0.39343   0.23043   0.00000  Uiso   1.00
C149   C     0.19720   0.32775   0.20500   0.00000  Uiso   1.00
C150   C     0.21210   0.28252   0.22930   0.00000  Uiso   1.00
C151   C     0.27100   0.27101   0.29300   0.00000  Uiso   1.00
H152   H     0.28023   0.23931   0.30923   0.00000  Uiso   1.00
C153   C     0.31900   0.30502   0.33580   0.00000  Uiso   1.00
H154   H     0.36098   0.29645   0.38015   0.00000  Uiso   1.00
C155   C     0.07180   0.11177   0.36090   0.00000  Uiso   1.00
C156   C     0.09800   0.14831   0.31670   0.00000  Uiso   1.00
C157   C     0.12800   0.13603   0.25710   0.00000  Uiso   1.00
H158   H     0.13219   0.10395   0.24591   0.00000  Uiso   1.00
C159   C     0.15280   0.16875   0.21210   0.00000  Uiso   1.00
C160   C     0.14580   0.21538   0.23120   0.00000  Uiso   1.00
C161   C     0.11690   0.22767   0.28960   0.00000  Uiso   1.00
H162   H     0.11236   0.25967   0.30112   0.00000  Uiso   1.00
C163   C     0.09350   0.19440   0.33320   0.00000  Uiso   1.00
H164   H     0.07398   0.20368   0.37553   0.00000  Uiso   1.00
O165   O     0.16550   0.24860   0.18310   0.00000  Uiso   1.00
O166   O     0.41158   0.37523   0.41370   0.00000  Uiso   1.00
O167   O     0.04321   0.12497   0.41480   0.00000  Uiso   1.00
O168   O     0.07915   0.06997   0.34240   0.00000  Uiso   1.00
O169   O     0.33669   0.42934   0.33950   0.00000  Uiso   1.00
O170   O     0.11930   0.39453   0.12290   0.00000  Uiso   1.00
O171   O     0.11720   0.32225   0.04410   0.00000  Uiso   1.00
O172   O     0.06230   0.32638   0.15130   0.00000  Uiso   1.00
O173   O     0.19700   0.10101   0.14560   0.00000  Uiso   1.00
O174   O     0.15070   0.16849   0.05490   0.00000  Uiso   1.00
O175   O     0.26245   0.17165   0.16890   0.00000  Uiso   1.00
H176   H     0.25900   0.20040   0.17561   0.00000  Uiso   1.00
O177   O     0.58773   0.45813   0.50220   0.00000  Uiso   1.00
O178   O     0.53083   0.45824   0.61560   0.00000  Uiso   1.00
S179   S     0.11734   0.34468   0.12396   0.00000  Uiso   1.00
S180   S     0.19390   0.15109   0.13844   0.00000  Uiso   1.00
C181   C     0.85480   0.88852   0.35940   0.00000  Uiso   1.00
C182   C     0.80540   0.85070   0.31380   0.00000  Uiso   1.00
C183   C     0.74510   0.86185   0.24750   0.00000  Uiso   1.00
H184   H     0.73595   0.89343   0.23043   0.00000  Uiso   1.00
C185   C     0.69720   0.82775   0.20500   0.00000  Uiso   1.00
C186   C     0.71210   0.78252   0.22930   0.00000  Uiso   1.00
C187   C     0.77100   0.77101   0.29300   0.00000  Uiso   1.00
H188   H     0.78023   0.73931   0.30923   0.00000  Uiso   1.00
C189   C     0.81900   0.80502   0.33580   0.00000  Uiso   1.00
H190   H     0.86098   0.79645   0.38015   0.00000  Uiso   1.00
C191   C     0.57180   0.61177   0.36090   0.00000  Uiso   1.00
C192   C     0.59800   0.64831   0.31670   0.00000  Uiso   1.00
C193   C     0.62800   0.63603   0.25710   0.00000  Uiso   1.00
H194   H     0.63219   0.60395   0.24591   0.00000  Uiso   1.00
C195   C     0.65280   0.66875   0.21210   0.00000  Uiso   1.00
C196   C     0.64580   0.71538   0.23120   0.00000  Uiso   1.00
C197   C     0.61690   0.72767   0.28960   0.00000  Uiso   1.00
H198   H     0.61236   0.75967   0.30112   0.00000  Uiso   1.00
C199   C     0.59350   0.69440   0.33320   0.00000  Uiso   1.00
H200   H     0.57398   0.70368   0.37553   0.00000  Uiso   1.00
O201   O     0.66550   0.74860   0.18310   0.00000  Uiso   1.00
O202   O     0.91158   0.87523   0.41370   0.00000  Uiso   1.00
O203   O     0.54321   0.62497   0.41480   0.00000  Uiso   1.00
O204   O     0.57915   0.56997   0.34240   0.00000  Uiso   1.00
O205   O     0.83669   0.92934   0.33950   0.00000  Uiso   1.00
O206   O     0.61930   0.89453   0.12290   0.00000  Uiso   1.00
O207   O     0.61720   0.82225   0.04410   0.00000  Uiso   1.00
O208   O     0.56230   0.82638   0.15130   0.00000  Uiso   1.00
O209   O     0.69700   0.60101   0.14560   0.00000  Uiso   1.00
O210   O     0.65070   0.66849   0.05490   0.00000  Uiso   1.00
O211   O     0.76245   0.67165   0.16890   0.00000  Uiso   1.00
H212   H     0.75900   0.70040   0.17561   0.00000  Uiso   1.00
O213   O     0.08773   0.95813   0.50220   0.00000  Uiso   1.00
O214   O     0.03083   0.95824   0.61560   0.00000  Uiso   1.00
S215   S     0.61734   0.84468   0.12396   0.00000  Uiso   1.00
S216   S     0.69390   0.65109   0.13844   0.00000  Uiso   1.00
C217   C     0.64520   0.38852   0.64060   0.00000  Uiso   1.00
C218   C     0.69460   0.35070   0.68620   0.00000  Uiso   1.00
C219   C     0.75490   0.36185   0.75250   0.00000  Uiso   1.00
H220   H     0.76405   0.39343   0.76957   0.00000  Uiso   1.00
C221   C     0.80280   0.32775   0.79500   0.00000  Uiso   1.00
C222   C     0.78790   0.28252   0.77070   0.00000  Uiso   1.00
C223   C     0.72900   0.27101   0.70700   0.00000  Uiso   1.00
H224   H     0.71977   0.23931   0.69077   0.00000  Uiso   1.00
C225   C     0.68100   0.30502   0.66420   0.00000  Uiso   1.00
H226   H     0.63902   0.29645   0.61985   0.00000  Uiso   1.00
C227   C     0.92820   0.11177   0.63910   0.00000  Uiso   1.00
C228   C     0.90200   0.14831   0.68330   0.00000  Uiso   1.00
C229   C     0.87200   0.13603   0.74290   0.00000  Uiso   1.00
H230   H     0.86781   0.10395   0.75409   0.00000  Uiso   1.00
C231   C     0.84720   0.16875   0.78790   0.00000  Uiso   1.00
C232   C     0.85420   0.21538   0.76880   0.00000  Uiso   1.00
C233   C     0.88310   0.22767   0.71040   0.00000  Uiso   1.00
H234   H     0.88764   0.25967   0.69888   0.00000  Uiso   1.00
C235   C     0.90650   0.19440   0.66680   0.00000  Uiso   1.00
H236   H     0.92602   0.20368   0.62447   0.00000  Uiso   1.00
O237   O     0.83450   0.24860   0.81690   0.00000  Uiso   1.00
O238   O     0.58842   0.37523   0.58630   0.00000  Uiso   1.00
O239   O     0.95679   0.12497   0.58520   0.00000  Uiso   1.00
O240   O     0.92085   0.06997   0.65760   0.00000  Uiso   1.00
O241   O     0.66331   0.42934   0.66050   0.00000  Uiso   1.00
O242   O     0.88070   0.39453   0.87710   0.00000  Uiso   1.00
O243   O     0.88280   0.32225   0.95590   0.00000  Uiso   1.00
O244   O     0.93770   0.32638   0.84870   0.00000  Uiso   1.00
O245   O     0.80300   0.10101   0.85440   0.00000  Uiso   1.00
O246   O     0.84930   0.16849   0.94510   0.00000  Uiso   1.00
O247   O     0.73755   0.17165   0.83110   0.00000  Uiso   1.00
H248   H     0.74100   0.20040   0.82439   0.00000  Uiso   1.00
O249   O     0.41227   0.45813   0.49780   0.00000  Uiso   1.00
O250   O     0.46917   0.45824   0.38440   0.00000  Uiso   1.00
S251   S     0.88266   0.34468   0.87604   0.00000  Uiso   1.00
S252   S     0.80610   0.15109   0.86156   0.00000  Uiso   1.00
C253   C     0.14520   0.88852   0.64060   0.00000  Uiso   1.00
C254   C     0.19460   0.85070   0.68620   0.00000  Uiso   1.00
C255   C     0.25490   0.86185   0.75250   0.00000  Uiso   1.00
H256   H     0.26405   0.89343   0.76957   0.00000  Uiso   1.00
C257   C     0.30280   0.82775   0.79500   0.00000  Uiso   1.00
C258   C     0.28790   0.78252   0.77070   0.00000  Uiso   1.00
C259   C     0.22900   0.77101   0.70700   0.00000  Uiso   1.00
H260   H     0.21977   0.73931   0.69077   0.00000  Uiso   1.00
C261   C     0.18100   0.80502   0.66420   0.00000  Uiso   1.00
H262   H     0.13902   0.79645   0.61985   0.00000  Uiso   1.00
C263   C     0.42820   0.61177   0.63910   0.00000  Uiso   1.00
C264   C     0.40200   0.64831   0.68330   0.00000  Uiso   1.00
C265   C     0.37200   0.63603   0.74290   0.00000  Uiso   1.00
H266   H     0.36781   0.60395   0.75409   0.00000  Uiso   1.00
C267   C     0.34720   0.66875   0.78790   0.00000  Uiso   1.00
C268   C     0.35420   0.71538   0.76880   0.00000  Uiso   1.00
C269   C     0.38310   0.72767   0.71040   0.00000  Uiso   1.00
H270   H     0.38764   0.75967   0.69888   0.00000  Uiso   1.00
C271   C     0.40650   0.69440   0.66680   0.00000  Uiso   1.00
H272   H     0.42603   0.70368   0.62447   0.00000  Uiso   1.00
O273   O     0.33450   0.74860   0.81690   0.00000  Uiso   1.00
O274   O     0.08842   0.87523   0.58630   0.00000  Uiso   1.00
O275   O     0.45679   0.62497   0.58520   0.00000  Uiso   1.00
O276   O     0.42085   0.56997   0.65760   0.00000  Uiso   1.00
O277   O     0.16331   0.92934   0.66050   0.00000  Uiso   1.00
O278   O     0.38070   0.89453   0.87710   0.00000  Uiso   1.00
O279   O     0.38280   0.82225   0.95590   0.00000  Uiso   1.00
O280   O     0.43770   0.82638   0.84870   0.00000  Uiso   1.00
O281   O     0.30300   0.60101   0.85440   0.00000  Uiso   1.00
O282   O     0.34930   0.66849   0.94510   0.00000  Uiso   1.00
O283   O     0.23755   0.67165   0.83110   0.00000  Uiso   1.00
H284   H     0.24100   0.70040   0.82439   0.00000  Uiso   1.00
O285   O     0.91227   0.95813   0.49780   0.00000  Uiso   1.00
O286   O     0.96917   0.95824   0.38440   0.00000  Uiso   1.00
S287   S     0.38266   0.84468   0.87604   0.00000  Uiso   1.00
S288   S     0.30610   0.65109   0.86156   0.00000  Uiso   1.00
O289   O     0.48380   0.50000   0.75500   0.00000  Uiso   1.00
O290   O     0.33230   0.50000   0.60260   0.00000  Uiso   1.00
O291   O     0.27700   0.50000   0.38750   0.00000  Uiso   1.00
O292   O     0.34710   0.50000   0.24180   0.00000  Uiso   1.00
Zr293  Zr    0.44293   0.50000   0.61278   0.00000  Uiso   1.00
Zr294  Zr    0.38292   0.50000   0.38410   0.00000  Uiso   1.00
O295   O     0.98380   0.00000   0.75500   0.00000  Uiso   1.00
O296   O     0.83230   0.00000   0.60260   0.00000  Uiso   1.00
O297   O     0.77700   0.00000   0.38750   0.00000  Uiso   1.00
O298   O     0.84710   0.00000   0.24180   0.00000  Uiso   1.00
Zr299  Zr    0.94293   0.00000   0.61278   0.00000  Uiso   1.00
Zr300  Zr    0.88292   0.00000   0.38410   0.00000  Uiso   1.00
O301   O     0.51620   0.50000   0.24500   0.00000  Uiso   1.00
O302   O     0.66770   0.50000   0.39740   0.00000  Uiso   1.00
O303   O     0.72300   0.50000   0.61250   0.00000  Uiso   1.00
O304   O     0.65290   0.50000   0.75820   0.00000  Uiso   1.00
Zr305  Zr    0.55707   0.50000   0.38722   0.00000  Uiso   1.00
Zr306  Zr    0.61708   0.50000   0.61590   0.00000  Uiso   1.00
O307   O     0.01620   0.00000   0.24500   0.00000  Uiso   1.00
O308   O     0.16770   0.00000   0.39740   0.00000  Uiso   1.00
O309   O     0.22300   0.00000   0.61250   0.00000  Uiso   1.00
O310   O     0.15290   0.00000   0.75820   0.00000  Uiso   1.00
Zr311  Zr    0.05707   0.00000   0.38722   0.00000  Uiso   1.00
Zr312  Zr    0.11708   0.00000   0.61590   0.00000  Uiso   1.00
Zr313  Zr    0.50000   0.58539   0.50000   0.00000  Uiso   1.00
Zr314  Zr    0.00000   0.08539   0.50000   0.00000  Uiso   1.00
Zr315  Zr    0.50000   0.41461   0.50000   0.00000  Uiso   1.00
Zr316  Zr    0.00000   0.91461   0.50000   0.00000  Uiso   1.00
loop_
_geom_bond_atom_site_label_1
_geom_bond_atom_site_label_2
_geom_bond_distance
_geom_bond_site_symmetry_2
_ccdc_geom_bond_type
C1     C2      1.499   .     S
C1     O22     1.258   .     S
C1     O25     1.240   .     S
C2     C3      1.376   .     S
C2     C9      1.365   .     S
C3     H4      0.950   .     S
C3     C5      1.393   .     S
C5     C6      1.364   .     S
C5     S35     1.787   .     S
C6     C7      1.340   .     S
C6     O21     1.393   .     S
C7     H8      0.950   .     S
C7     C9      1.394   .     S
C9     H10     0.949   .     S
C11    C12     1.476   .     S
C11    O23     1.272   .     S
C11    O24     1.261   .     S
C12    C13     1.365   .     S
C12    C19     1.362   .     S
C13    H14     0.950   .     S
C13    C15     1.393   .     S
C15    C16     1.395   .     S
C15    S36     1.764   .     S
C16    C17     1.332   .     S
C16    O21     1.383   .     S
C17    H18     0.950   .     S
C17    C19     1.374   .     S
C19    H20     0.949   .     S
O22    Zr313   2.193   .     S
O23    Zr316   2.206   1_655 S
O24    Zr299   2.240   1_565 S
O25    Zr306   2.255   .     S
O26    S35     1.434   .     S
O27    S35     1.459   .     S
O28    S35     1.444   .     S
O29    S36     1.444   .     S
O30    S36     1.443   .     S
O31    H32     0.840   .     S
O31    S36     1.444   .     S
O33    Zr313   2.176   .     S
O33    Zr293   2.143   .     S
O33    Zr294   2.127   .     S
O34    Zr313   2.180   .     S
O34    Zr305   2.148   .     S
O34    Zr294   2.131   .     S
C37    C38     1.499   .     S
C37    O58     1.258   .     S
C37    O61     1.240   .     S
C38    C39     1.376   .     S
C38    C45     1.365   .     S
C39    H40     0.950   .     S
C39    C41     1.393   .     S
C41    C42     1.364   .     S
C41    S71     1.787   .     S
C42    C43     1.340   .     S
C42    O57     1.393   .     S
C43    H44     0.950   .     S
C43    C45     1.394   .     S
C45    H46     0.949   .     S
C47    C48     1.476   .     S
C47    O59     1.272   .     S
C47    O60     1.261   .     S
C48    C49     1.365   .     S
C48    C55     1.362   .     S
C49    H50     0.950   .     S
C49    C51     1.393   .     S
C51    C52     1.395   .     S
C51    S72     1.764   .     S
C52    C53     1.332   .     S
C52    O57     1.383   .     S
C53    H54     0.950   .     S
C53    C55     1.374   .     S
C55    H56     0.949   .     S
O58    Zr314   2.193   .     S
O59    Zr315   2.206   .     S
O60    Zr293   2.240   .     S
O61    Zr312   2.255   .     S
O62    S71     1.434   .     S
O63    S71     1.459   .     S
O64    S71     1.444   .     S
O65    S72     1.444   .     S
O66    S72     1.443   .     S
O67    H68     0.840   .     S
O67    S72     1.444   .     S
O69    Zr314   2.176   1_655 S
O69    Zr299   2.143   .     S
O69    Zr300   2.127   .     S
O70    Zr314   2.180   1_655 S
O70    Zr311   2.148   1_655 S
O70    Zr300   2.131   .     S
C73    C74     1.499   .     S
C73    O94     1.258   .     S
C73    O97     1.240   .     S
C74    C75     1.376   .     S
C74    C81     1.365   .     S
C75    H76     0.950   .     S
C75    C77     1.393   .     S
C77    C78     1.364   .     S
C77    S107    1.787   .     S
C78    C79     1.340   .     S
C78    O93     1.393   .     S
C79    H80     0.950   .     S
C79    C81     1.394   .     S
C81    H82     0.949   .     S
C83    C84     1.476   .     S
C83    O95     1.272   .     S
C83    O96     1.261   .     S
C84    C85     1.365   .     S
C84    C91     1.362   .     S
C85    H86     0.950   .     S
C85    C87     1.393   .     S
C87    C88     1.395   .     S
C87    S108    1.764   .     S
C88    C89     1.332   .     S
C88    O93     1.383   .     S
C89    H90     0.950   .     S
C89    C91     1.374   .     S
C91    H92     0.949   .     S
O94    Zr313   2.193   .     S
O95    Zr316   2.206   .     S
O96    Zr311   2.240   1_565 S
O97    Zr294   2.255   .     S
O98    S107    1.434   .     S
O99    S107    1.459   .     S
O100   S107    1.444   .     S
O101   S108    1.444   .     S
O102   S108    1.443   .     S
O103   H104    0.840   .     S
O103   S108    1.444   .     S
O105   Zr313   2.176   .     S
O105   Zr305   2.143   .     S
O105   Zr306   2.127   .     S
O106   Zr313   2.180   .     S
O106   Zr293   2.148   .     S
O106   Zr306   2.131   .     S
C109   C110    1.499   .     S
C109   O130    1.258   .     S
C109   O133    1.240   .     S
C110   C111    1.376   .     S
C110   C117    1.365   .     S
C111   H112    0.950   .     S
C111   C113    1.393   .     S
C113   C114    1.364   .     S
C113   S143    1.787   .     S
C114   C115    1.340   .     S
C114   O129    1.393   .     S
C115   H116    0.950   .     S
C115   C117    1.394   .     S
C117   H118    0.949   .     S
C119   C120    1.476   .     S
C119   O131    1.272   .     S
C119   O132    1.261   .     S
C120   C121    1.365   .     S
C120   C127    1.362   .     S
C121   H122    0.950   .     S
C121   C123    1.393   .     S
C123   C124    1.395   .     S
C123   S144    1.764   .     S
C124   C125    1.332   .     S
C124   O129    1.383   .     S
C125   H126    0.950   .     S
C125   C127    1.374   .     S
C127   H128    0.949   .     S
O130   Zr314   2.193   1_655 S
O131   Zr315   2.206   .     S
O132   Zr305   2.240   .     S
O133   Zr300   2.255   .     S
O134   S143    1.434   .     S
O135   S143    1.459   .     S
O136   S143    1.444   .     S
O137   S144    1.444   .     S
O138   S144    1.443   .     S
O139   H140    0.840   .     S
O139   S144    1.444   .     S
O141   Zr314   2.176   .     S
O141   Zr311   2.143   .     S
O141   Zr312   2.127   .     S
O142   Zr314   2.180   .     S
O142   Zr299   2.148   1_455 S
O142   Zr312   2.131   .     S
C145   C146    1.499   .     S
C145   O166    1.258   .     S
C145   O169    1.240   .     S
C146   C147    1.376   .     S
C146   C153    1.365   .     S
C147   H148    0.950   .     S
C147   C149    1.393   .     S
C149   C150    1.364   .     S
C149   S179    1.787   .     S
C150   C151    1.340   .     S
C150   O165    1.393   .     S
C151   H152    0.950   .     S
C151   C153    1.394   .     S
C153   H154    0.949   .     S
C155   C156    1.476   .     S
C155   O167    1.272   .     S
C155   O168    1.261   .     S
C156   C157    1.365   .     S
C156   C163    1.362   .     S
C157   H158    0.950   .     S
C157   C159    1.393   .     S
C159   C160    1.395   .     S
C159   S180    1.764   .     S
C160   C161    1.332   .     S
C160   O165    1.383   .     S
C161   H162    0.950   .     S
C161   C163    1.374   .     S
C163   H164    0.949   .     S
O166   Zr315   2.193   .     S
O167   Zr314   2.206   .     S
O168   Zr311   2.240   .     S
O169   Zr294   2.255   .     S
O170   S179    1.434   .     S
O171   S179    1.459   .     S
O172   S179    1.444   .     S
O173   S180    1.444   .     S
O174   S180    1.443   .     S
O175   H176    0.840   .     S
O175   S180    1.444   .     S
O177   Zr315   2.176   .     S
O177   Zr305   2.143   .     S
O177   Zr306   2.127   .     S
O178   Zr315   2.180   .     S
O178   Zr293   2.148   .     S
O178   Zr306   2.131   .     S
C181   C182    1.499   .     S
C181   O202    1.258   .     S
C181   O205    1.240   .     S
C182   C183    1.376   .     S
C182   C189    1.365   .     S
C183   H184    0.950   .     S
C183   C185    1.393   .     S
C185   C186    1.364   .     S
C185   S215    1.787   .     S
C186   C187    1.340   .     S
C186   O201    1.393   .     S
C187   H188    0.950   .     S
C187   C189    1.394   .     S
C189   H190    0.949   .     S
C191   C192    1.476   .     S
C191   O203    1.272   .     S
C191   O204    1.261   .     S
C192   C193    1.365   .     S
C192   C199    1.362   .     S
C193   H194    0.950   .     S
C193   C195    1.393   .     S
C195   C196    1.395   .     S
C195   S216    1.764   .     S
C196   C197    1.332   .     S
C196   O201    1.383   .     S
C197   H198    0.950   .     S
C197   C199    1.374   .     S
C199   H200    0.949   .     S
O202   Zr316   2.193   1_655 S
O203   Zr313   2.206   .     S
O204   Zr305   2.240   .     S
O205   Zr300   2.255   1_565 S
O206   S215    1.434   .     S
O207   S215    1.459   .     S
O208   S215    1.444   .     S
O209   S216    1.444   .     S
O210   S216    1.443   .     S
O211   H212    0.840   .     S
O211   S216    1.444   .     S
O213   Zr316   2.176   .     S
O213   Zr311   2.143   1_565 S
O213   Zr312   2.127   1_565 S
O214   Zr316   2.180   .     S
O214   Zr299   2.148   1_465 S
O214   Zr312   2.131   1_565 S
C217   C218    1.499   .     S
C217   O238    1.258   .     S
C217   O241    1.240   .     S
C218   C219    1.376   .     S
C218   C225    1.365   .     S
C219   H220    0.950   .     S
C219   C221    1.393   .     S
C221   C222    1.364   .     S
C221   S251    1.787   .     S
C222   C223    1.340   .     S
C222   O237    1.393   .     S
C223   H224    0.950   .     S
C223   C225    1.394   .     S
C225   H226    0.949   .     S
C227   C228    1.476   .     S
C227   O239    1.272   .     S
C227   O240    1.261   .     S
C228   C229    1.365   .     S
C228   C235    1.362   .     S
C229   H230    0.950   .     S
C229   C231    1.393   .     S
C231   C232    1.395   .     S
C231   S252    1.764   .     S
C232   C233    1.332   .     S
C232   O237    1.383   .     S
C233   H234    0.950   .     S
C233   C235    1.374   .     S
C235   H236    0.949   .     S
O238   Zr315   2.193   .     S
O239   Zr314   2.206   1_655 S
O240   Zr299   2.240   .     S
O241   Zr306   2.255   .     S
O242   S251    1.434   .     S
O243   S251    1.459   .     S
O244   S251    1.444   .     S
O245   S252    1.444   .     S
O246   S252    1.443   .     S
O247   H248    0.840   .     S
O247   S252    1.444   .     S
O249   Zr315   2.176   .     S
O249   Zr293   2.143   .     S
O249   Zr294   2.127   .     S
O250   Zr315   2.180   .     S
O250   Zr305   2.148   .     S
O250   Zr294   2.131   .     S
C253   C254    1.499   .     S
C253   O274    1.258   .     S
C253   O277    1.240   .     S
C254   C255    1.376   .     S
C254   C261    1.365   .     S
C255   H256    0.950   .     S
C255   C257    1.393   .     S
C257   C258    1.364   .     S
C257   S287    1.787   .     S
C258   C259    1.340   .     S
C258   O273    1.393   .     S
C259   H260    0.950   .     S
C259   C261    1.394   .     S
C261   H262    0.949   .     S
C263   C264    1.476   .     S
C263   O275    1.272   .     S
C263   O276    1.261   .     S
C264   C265    1.365   .     S
C264   C271    1.362   .     S
C265   H266    0.950   .     S
C265   C267    1.393   .     S
C267   C268    1.395   .     S
C267   S288    1.764   .     S
C268   C269    1.332   .     S
C268   O273    1.383   .     S
C269   H270    0.950   .     S
C269   C271    1.374   .     S
C271   H272    0.949   .     S
O274   Zr316   2.193   .     S
O275   Zr313   2.206   .     S
O276   Zr293   2.240   .     S
O277   Zr312   2.255   1_565 S
O278   S287    1.434   .     S
O279   S287    1.459   .     S
O280   S287    1.444   .     S
O281   S288    1.444   .     S
O282   S288    1.443   .     S
O283   H284    0.840   .     S
O283   S288    1.444   .     S
O285   Zr316   2.176   1_655 S
O285   Zr299   2.143   1_565 S
O285   Zr300   2.127   1_565 S
O286   Zr316   2.180   1_655 S
O286   Zr311   2.148   1_665 S
O286   Zr300   2.131   1_565 S
O289   Zr293   2.193   .     S
O290   Zr293   2.210   .     S
O291   Zr294   2.184   .     S
O292   Zr294   2.195   .     S
Zr293  Zr315   3.503   .     S
Zr293  Zr313   3.503   .     S
Zr293  Zr294   3.526   .     S
Zr293  Zr306   3.542   .     S
Zr294  Zr313   3.503   .     S
Zr294  Zr315   3.503   .     S
Zr294  Zr305   3.542   .     S
O295   Zr299   2.193   .     S
O296   Zr299   2.210   .     S
O297   Zr300   2.184   .     S
O298   Zr300   2.195   .     S
Zr299  O285    2.143   1_545 S
Zr299  O24     2.240   1_545 S
Zr299  O214    2.148   1_645 S
Zr299  O142    2.148   1_655 S
Zr299  Zr316   3.503   1_645 S
Zr299  Zr314   3.503   1_655 S
Zr299  Zr300   3.526   .     S
Zr299  Zr312   3.542   1_655 S
Zr300  O285    2.127   1_545 S
Zr300  O205    2.255   1_545 S
Zr300  O286    2.131   1_545 S
Zr300  Zr314   3.503   1_655 S
Zr300  Zr316   3.503   1_645 S
Zr300  Zr311   3.542   1_655 S
O301   Zr305   2.193   .     S
O302   Zr305   2.210   .     S
O303   Zr306   2.184   .     S
O304   Zr306   2.195   .     S
Zr305  Zr315   3.503   .     S
Zr305  Zr313   3.503   .     S
Zr305  Zr306   3.526   .     S
Zr306  Zr313   3.503   .     S
Zr306  Zr315   3.503   .     S
O307   Zr311   2.193   .     S
O308   Zr311   2.210   .     S
O309   Zr312   2.184   .     S
O310   Zr312   2.195   .     S
Zr311  O213    2.143   1_545 S
Zr311  O96     2.240   1_545 S
Zr311  O286    2.148   1_445 S
Zr311  O70     2.148   1_455 S
Zr311  Zr316   3.503   1_545 S
Zr311  Zr314   3.503   .     S
Zr311  Zr312   3.526   .     S
Zr311  Zr300   3.542   1_455 S
Zr312  O213    2.127   1_545 S
Zr312  O277    2.255   1_545 S
Zr312  O214    2.131   1_545 S
Zr312  Zr314   3.503   .     S
Zr312  Zr316   3.503   1_545 S
Zr312  Zr299   3.542   1_455 S
Zr314  O69     2.176   1_455 S
Zr314  O70     2.180   1_455 S
Zr314  O130    2.193   1_455 S
Zr314  O239    2.206   1_455 S
Zr314  Zr299   3.503   1_455 S
Zr314  Zr300   3.503   1_455 S
Zr316  O285    2.176   1_455 S
Zr316  O286    2.180   1_455 S
Zr316  O202    2.193   1_455 S
Zr316  O23     2.206   1_455 S
Zr316  Zr311   3.503   1_565 S
Zr316  Zr299   3.503   1_465 S
Zr316  Zr312   3.503   1_565 S
Zr316  Zr300   3.503   1_465 S
