data_DUGGOD_FSR
_audit_creation_date              2024-06-11
_audit_creation_method            'Materials Studio'
_symmetry_space_group_name_H-M    'P1'
_symmetry_Int_Tables_number       1
_symmetry_cell_setting            triclinic
loop_
_symmetry_equiv_pos_as_xyz
  x,y,z
_cell_length_a                    11.9260
_cell_length_b                    14.4190
_cell_length_c                    24.3110
_cell_angle_alpha                 90.0000
_cell_angle_beta                  103.4240
_cell_angle_gamma                 90.0000
loop_
_atom_site_label
_atom_site_type_symbol
_atom_site_fract_x
_atom_site_fract_y
_atom_site_fract_z
_atom_site_U_iso_or_equiv
_atom_site_adp_type
_atom_site_occupancy
C1     C     0.46490   0.92480   0.46280   0.00000  Uiso   1.00
H2     H     0.46480   0.98780   0.47110   0.00000  Uiso   1.00
C3     C     0.89600   0.17030   0.34470   0.00000  Uiso   1.00
H4     H     0.87590   0.10810   0.33940   0.00000  Uiso   1.00
C5     C     0.12230   0.54400   0.44070   0.00000  Uiso   1.00
H6     H     0.07580   0.59440   0.44430   0.00000  Uiso   1.00
C7     C     0.18050   0.40890   0.43220   0.00000  Uiso   1.00
H8     H     0.18590   0.34510   0.42790   0.00000  Uiso   1.00
C9     C     0.96900   0.30640   0.33620   0.00000  Uiso   1.00
H10    H     0.01020   0.35520   0.32550   0.00000  Uiso   1.00
C11    C     0.24000   0.67760   0.55290   0.00000  Uiso   1.00
H12    H     0.26480   0.61690   0.56080   0.00000  Uiso   1.00
C13    C     0.18200   0.81330   0.56010   0.00000  Uiso   1.00
H14    H     0.15780   0.86720   0.57500   0.00000  Uiso   1.00
C15    C     0.66600   0.05060   0.56900   0.00000  Uiso   1.00
H16    H     0.63060   0.00180   0.58320   0.00000  Uiso   1.00
C17    C     0.39500   0.67100   0.33500   0.00000  Uiso   1.00
H18    H     0.37260   0.73260   0.32830   0.00000  Uiso   1.00
C19    C     0.47300   0.52900   0.33280   0.00000  Uiso   1.00
H20    H     0.50900   0.47730   0.32210   0.00000  Uiso   1.00
C21    C     0.68300   0.43310   0.43600   0.00000  Uiso   1.00
H22    H     0.69000   0.49710   0.43290   0.00000  Uiso   1.00
C23    C     0.03000   0.05180   0.46060   0.00000  Uiso   1.00
H24    H     0.08020   0.10140   0.46230   0.00000  Uiso   1.00
C25    C     0.96500   0.91200   0.45840   0.00000  Uiso   1.00
H26    H     0.96020   0.84770   0.45600   0.00000  Uiso   1.00
C27    C     0.74300   0.18210   0.56400   0.00000  Uiso   1.00
H28    H     0.77360   0.24060   0.57450   0.00000  Uiso   1.00
C29    C     0.52200   0.79130   0.45120   0.00000  Uiso   1.00
H30    H     0.56950   0.74090   0.44890   0.00000  Uiso   1.00
C31    C     0.60300   0.13670   0.33960   0.00000  Uiso   1.00
H32    H     0.60620   0.19670   0.32610   0.00000  Uiso   1.00
C33    C     0.28400   0.11600   0.41930   0.00000  Uiso   1.00
H34    H     0.32450   0.13290   0.45530   0.00000  Uiso   1.00
C35    C     0.19200   0.03000   0.35670   0.00000  Uiso   1.00
H36    H     0.14920   0.98260   0.33550   0.00000  Uiso   1.00
C37    C     0.55700   0.99400   0.34730   0.00000  Uiso   1.00
H38    H     0.52500   0.93490   0.34050   0.00000  Uiso   1.00
C39    C     0.62150   0.29970   0.44710   0.00000  Uiso   1.00
H40    H     0.57400   0.25070   0.45200   0.00000  Uiso   1.00
N41    N     0.37430   0.87670   0.45450   0.00000  Uiso   1.00
N42    N     0.41510   0.78460   0.44730   0.00000  Uiso   1.00
N43    N     0.56080   0.88020   0.45910   0.00000  Uiso   1.00
N44    N     0.63920   0.01870   0.39200   0.00000  Uiso   1.00
N45    N     0.67000   0.10510   0.38670   0.00000  Uiso   1.00
N46    N     0.70860   0.04540   0.52200   0.00000  Uiso   1.00
N47    N     0.75520   0.13430   0.51730   0.00000  Uiso   1.00
N48    N     0.89470   0.21370   0.38760   0.00000  Uiso   1.00
N49    N     0.93540   0.30170   0.38220   0.00000  Uiso   1.00
N50    N     0.08350   0.45210   0.43690   0.00000  Uiso   1.00
N51    N     0.26650   0.46560   0.43440   0.00000  Uiso   1.00
N52    N     0.58570   0.39000   0.43740   0.00000  Uiso   1.00
N53    N     0.24390   0.72260   0.50650   0.00000  Uiso   1.00
N54    N     0.20670   0.80630   0.51120   0.00000  Uiso   1.00
N55    N     0.19700   0.72950   0.58640   0.00000  Uiso   1.00
N56    N     0.38610   0.62160   0.37800   0.00000  Uiso   1.00
N57    N     0.68200   0.13310   0.59170   0.00000  Uiso   1.00
N58    N     0.91620   0.06160   0.45680   0.00000  Uiso   1.00
N59    N     0.93300   0.22530   0.30410   0.00000  Uiso   1.00
N60    N     0.44600   0.61470   0.30000   0.00000  Uiso   1.00
N61    N     0.43940   0.53870   0.37860   0.00000  Uiso   1.00
N62    N     0.23270   0.02640   0.40780   0.00000  Uiso   1.00
N63    N     0.52600   0.07020   0.31260   0.00000  Uiso   1.00
N64    N     0.87510   0.96790   0.45890   0.00000  Uiso   1.00
N65    N     0.06330   0.96010   0.46190   0.00000  Uiso   1.00
N66    N     0.21700   0.11300   0.33520   0.00000  Uiso   1.00
N67    N     0.27100   0.16900   0.38020   0.00000  Uiso   1.00
N68    N     0.73060   0.29200   0.44850   0.00000  Uiso   1.00
N69    N     0.76860   0.37390   0.43930   0.00000  Uiso   1.00
N70    N     0.22250   0.55130   0.43870   0.00000  Uiso   1.00
O71    O     0.19210   0.28490   0.66950   0.00000  Uiso   1.00
O72    O     0.34990   0.15040   0.68380   0.00000  Uiso   1.00
O73    O     0.35800   0.33700   0.35470   0.00000  Uiso   1.00
O74    O     0.40460   0.32370   0.66360   0.00000  Uiso   1.00
O75    O     0.93100   0.50160   0.50140   0.00000  Uiso   1.00
O76    O     0.35860   0.27800   0.76210   0.00000  Uiso   1.00
O77    O     0.46800   0.58120   0.50500   0.00000  Uiso   1.00
O78    O     0.19860   0.43290   0.75160   0.00000  Uiso   1.00
O79    O     0.04940   0.39120   0.59780   0.00000  Uiso   1.00
O80    O     0.99190   0.21310   0.61590   0.00000  Uiso   1.00
O81    O     0.27740   0.33280   0.84300   0.00000  Uiso   1.00
O82    O     0.43170   0.20210   0.85780   0.00000  Uiso   1.00
O83    O     0.40630   0.47250   0.74410   0.00000  Uiso   1.00
O84    O     0.56470   0.45070   0.68740   0.00000  Uiso   1.00
O85    O     0.49140   0.37080   0.83800   0.00000  Uiso   1.00
O86    O     0.59310   0.18500   0.68520   0.00000  Uiso   1.00
O87    O     0.54310   0.14240   0.77940   0.00000  Uiso   1.00
O88    O     0.29240   0.09640   0.78720   0.00000  Uiso   1.00
O89    O     0.42110   0.99830   0.73560   0.00000  Uiso   1.00
O90    O     0.17230   0.15160   0.57220   0.00000  Uiso   1.00
O91    O     0.38900   0.18850   0.56870   0.00000  Uiso   1.00
O92    O     0.22920   0.32750   0.55570   0.00000  Uiso   1.00
O93    O     0.02460   0.52270   0.67540   0.00000  Uiso   1.00
O94    O     0.42160   0.60650   0.66590   0.00000  Uiso   1.00
O95    O     0.65220   0.00990   0.72900   0.00000  Uiso   1.00
O96    O     0.75020   0.33610   0.69390   0.00000  Uiso   1.00
O97    O     0.59730   0.31520   0.76510   0.00000  Uiso   1.00
O98    O     0.29950   0.00600   0.53420   0.00000  Uiso   1.00
O99    O     0.66440   0.24130   0.87560   0.00000  Uiso   1.00
O100   O     0.56340   0.32130   0.60760   0.00000  Uiso   1.00
O101   O     0.46940   0.04400   0.63700   0.00000  Uiso   1.00
O102   O     0.24710   0.99790   0.64140   0.00000  Uiso   1.00
O103   O     0.00630   0.34110   0.69960   0.00000  Uiso   1.00
O104   O     0.12060   0.09860   0.69640   0.00000  Uiso   1.00
O105   O     0.90440   0.16640   0.70560   0.00000  Uiso   1.00
O106   O     0.39570   0.45790   0.58920   0.00000  Uiso   1.00
O107   O     0.20630   0.92230   0.73860   0.00000  Uiso   1.00
O108   O     0.99710   0.27350   0.50560   0.00000  Uiso   1.00
O109   O     0.42030   0.34390   0.49720   0.00000  Uiso   1.00
O110   O     0.12950   0.22550   0.77140   0.00000  Uiso   1.00
O111   O     0.22220   0.17070   0.88610   0.00000  Uiso   1.00
O112   O     0.33930   0.51730   0.84620   0.00000  Uiso   1.00
O113   O     0.24410   0.47900   0.65690   0.00000  Uiso   1.00
O114   O     0.79200   0.82680   0.52940   0.00000  Uiso   1.00
Si115  Si    0.32370   0.25980   0.69490   0.00000  Uiso   1.00
Cu116  Cu    0.21930   0.91698   0.46140   0.00000  Uiso   1.00
Cu117  Cu    0.31700   0.67079   0.44329   0.00000  Uiso   1.00
Cu118  Cu    0.71460   0.93181   0.45901   0.00000  Uiso   1.00
Cu119  Cu    0.82190   0.17289   0.45284   0.00000  Uiso   1.00
Cu120  Cu    0.93210   0.40457   0.43908   0.00000  Uiso   1.00
Cu121  Cu    0.43070   0.43535   0.43685   0.00000  Uiso   1.00
W122   W     0.60738   0.32242   0.68719   0.00000  Uiso   1.00
W123   W     0.54212   0.25209   0.82299   0.00000  Uiso   1.00
W124   W     0.34341   0.42417   0.80361   0.00000  Uiso   1.00
W125   W     0.52975   0.07703   0.71054   0.00000  Uiso   1.00
W126   W     0.26555   0.20593   0.82618   0.00000  Uiso   1.00
W127   W     0.10730   0.43043   0.67619   0.00000  Uiso   1.00
W128   W     0.09669   0.26821   0.57042   0.00000  Uiso   1.00
W129   W     0.40394   0.48883   0.66585   0.00000  Uiso   1.00
W130   W     0.39482   0.31909   0.56546   0.00000  Uiso   1.00
W131   W     0.30991   0.08292   0.59102   0.00000  Uiso   1.00
W132   W     0.03419   0.20791   0.69510   0.00000  Uiso   1.00
W133   W     0.25917   0.02416   0.71845   0.00000  Uiso   1.00
C134   C     0.96490   0.07520   0.96280   0.00000  Uiso   1.00
H135   H     0.96480   0.01220   0.97110   0.00000  Uiso   1.00
C136   C     0.39600   0.82970   0.84470   0.00000  Uiso   1.00
H137   H     0.37590   0.89190   0.83940   0.00000  Uiso   1.00
C138   C     0.62230   0.45600   0.94070   0.00000  Uiso   1.00
H139   H     0.57580   0.40560   0.94430   0.00000  Uiso   1.00
C140   C     0.68050   0.59110   0.93220   0.00000  Uiso   1.00
H141   H     0.68590   0.65490   0.92790   0.00000  Uiso   1.00
C142   C     0.46900   0.69360   0.83620   0.00000  Uiso   1.00
H143   H     0.51020   0.64480   0.82550   0.00000  Uiso   1.00
C144   C     0.74000   0.32240   0.05290   0.00000  Uiso   1.00
H145   H     0.76480   0.38310   0.06080   0.00000  Uiso   1.00
C146   C     0.68200   0.18670   0.06010   0.00000  Uiso   1.00
H147   H     0.65780   0.13280   0.07500   0.00000  Uiso   1.00
C148   C     0.16600   0.94940   0.06900   0.00000  Uiso   1.00
H149   H     0.13060   0.99820   0.08320   0.00000  Uiso   1.00
C150   C     0.89500   0.32900   0.83500   0.00000  Uiso   1.00
H151   H     0.87260   0.26740   0.82830   0.00000  Uiso   1.00
C152   C     0.97300   0.47100   0.83280   0.00000  Uiso   1.00
H153   H     0.00900   0.52270   0.82210   0.00000  Uiso   1.00
C154   C     0.18300   0.56690   0.93600   0.00000  Uiso   1.00
H155   H     0.19000   0.50290   0.93290   0.00000  Uiso   1.00
C156   C     0.53000   0.94820   0.96060   0.00000  Uiso   1.00
H157   H     0.58020   0.89860   0.96230   0.00000  Uiso   1.00
C158   C     0.46500   0.08800   0.95840   0.00000  Uiso   1.00
H159   H     0.46020   0.15230   0.95600   0.00000  Uiso   1.00
C160   C     0.24300   0.81790   0.06400   0.00000  Uiso   1.00
H161   H     0.27360   0.75940   0.07450   0.00000  Uiso   1.00
C162   C     0.02200   0.20870   0.95120   0.00000  Uiso   1.00
H163   H     0.06950   0.25910   0.94890   0.00000  Uiso   1.00
C164   C     0.10300   0.86330   0.83960   0.00000  Uiso   1.00
H165   H     0.10620   0.80330   0.82610   0.00000  Uiso   1.00
C166   C     0.78400   0.88400   0.91930   0.00000  Uiso   1.00
H167   H     0.82450   0.86710   0.95530   0.00000  Uiso   1.00
C168   C     0.69200   0.97000   0.85670   0.00000  Uiso   1.00
H169   H     0.64920   0.01740   0.83550   0.00000  Uiso   1.00
C170   C     0.05700   0.00600   0.84730   0.00000  Uiso   1.00
H171   H     0.02500   0.06510   0.84050   0.00000  Uiso   1.00
C172   C     0.12150   0.70030   0.94710   0.00000  Uiso   1.00
H173   H     0.07400   0.74930   0.95200   0.00000  Uiso   1.00
N174   N     0.87430   0.12330   0.95450   0.00000  Uiso   1.00
N175   N     0.91510   0.21540   0.94730   0.00000  Uiso   1.00
N176   N     0.06080   0.11980   0.95910   0.00000  Uiso   1.00
N177   N     0.13920   0.98130   0.89200   0.00000  Uiso   1.00
N178   N     0.17000   0.89490   0.88670   0.00000  Uiso   1.00
N179   N     0.20860   0.95460   0.02200   0.00000  Uiso   1.00
N180   N     0.25520   0.86570   0.01730   0.00000  Uiso   1.00
N181   N     0.39470   0.78630   0.88760   0.00000  Uiso   1.00
N182   N     0.43540   0.69830   0.88220   0.00000  Uiso   1.00
N183   N     0.58350   0.54790   0.93690   0.00000  Uiso   1.00
N184   N     0.76650   0.53440   0.93440   0.00000  Uiso   1.00
N185   N     0.08570   0.61000   0.93740   0.00000  Uiso   1.00
N186   N     0.74390   0.27740   0.00650   0.00000  Uiso   1.00
N187   N     0.70670   0.19370   0.01120   0.00000  Uiso   1.00
N188   N     0.69700   0.27050   0.08640   0.00000  Uiso   1.00
N189   N     0.88610   0.37840   0.87800   0.00000  Uiso   1.00
N190   N     0.18200   0.86690   0.09170   0.00000  Uiso   1.00
N191   N     0.41620   0.93840   0.95680   0.00000  Uiso   1.00
N192   N     0.43300   0.77470   0.80410   0.00000  Uiso   1.00
N193   N     0.94600   0.38530   0.80000   0.00000  Uiso   1.00
N194   N     0.93940   0.46130   0.87860   0.00000  Uiso   1.00
N195   N     0.73270   0.97360   0.90780   0.00000  Uiso   1.00
N196   N     0.02600   0.92980   0.81260   0.00000  Uiso   1.00
N197   N     0.37510   0.03210   0.95890   0.00000  Uiso   1.00
N198   N     0.56330   0.03990   0.96190   0.00000  Uiso   1.00
N199   N     0.71700   0.88700   0.83520   0.00000  Uiso   1.00
N200   N     0.77100   0.83100   0.88020   0.00000  Uiso   1.00
N201   N     0.23060   0.70800   0.94850   0.00000  Uiso   1.00
N202   N     0.26860   0.62610   0.93930   0.00000  Uiso   1.00
N203   N     0.72250   0.44870   0.93870   0.00000  Uiso   1.00
O204   O     0.69210   0.71510   0.16950   0.00000  Uiso   1.00
O205   O     0.84990   0.84960   0.18380   0.00000  Uiso   1.00
O206   O     0.85800   0.66300   0.85470   0.00000  Uiso   1.00
O207   O     0.90460   0.67630   0.16360   0.00000  Uiso   1.00
O208   O     0.43100   0.49840   0.00140   0.00000  Uiso   1.00
O209   O     0.85860   0.72200   0.26210   0.00000  Uiso   1.00
O210   O     0.96800   0.41880   0.00500   0.00000  Uiso   1.00
O211   O     0.69860   0.56710   0.25160   0.00000  Uiso   1.00
O212   O     0.54940   0.60880   0.09780   0.00000  Uiso   1.00
O213   O     0.49190   0.78690   0.11590   0.00000  Uiso   1.00
O214   O     0.77740   0.66720   0.34300   0.00000  Uiso   1.00
O215   O     0.93170   0.79790   0.35780   0.00000  Uiso   1.00
O216   O     0.90630   0.52750   0.24410   0.00000  Uiso   1.00
O217   O     0.06470   0.54930   0.18740   0.00000  Uiso   1.00
O218   O     0.99140   0.62920   0.33800   0.00000  Uiso   1.00
O219   O     0.09310   0.81500   0.18520   0.00000  Uiso   1.00
O220   O     0.04310   0.85760   0.27940   0.00000  Uiso   1.00
O221   O     0.79240   0.90360   0.28720   0.00000  Uiso   1.00
O222   O     0.92110   0.00170   0.23560   0.00000  Uiso   1.00
O223   O     0.67230   0.84840   0.07220   0.00000  Uiso   1.00
O224   O     0.88900   0.81150   0.06870   0.00000  Uiso   1.00
O225   O     0.72920   0.67250   0.05570   0.00000  Uiso   1.00
O226   O     0.52460   0.47730   0.17540   0.00000  Uiso   1.00
O227   O     0.92160   0.39350   0.16590   0.00000  Uiso   1.00
O228   O     0.15220   0.99010   0.22900   0.00000  Uiso   1.00
O229   O     0.25020   0.66390   0.19390   0.00000  Uiso   1.00
O230   O     0.09730   0.68480   0.26510   0.00000  Uiso   1.00
O231   O     0.79950   0.99400   0.03420   0.00000  Uiso   1.00
O232   O     0.16440   0.75870   0.37560   0.00000  Uiso   1.00
O233   O     0.06340   0.67870   0.10760   0.00000  Uiso   1.00
O234   O     0.96940   0.95600   0.13700   0.00000  Uiso   1.00
O235   O     0.74710   0.00210   0.14140   0.00000  Uiso   1.00
O236   O     0.50630   0.65890   0.19960   0.00000  Uiso   1.00
O237   O     0.62060   0.90140   0.19640   0.00000  Uiso   1.00
O238   O     0.40440   0.83360   0.20560   0.00000  Uiso   1.00
O239   O     0.89570   0.54210   0.08920   0.00000  Uiso   1.00
O240   O     0.70630   0.07770   0.23860   0.00000  Uiso   1.00
O241   O     0.49710   0.72650   0.00560   0.00000  Uiso   1.00
O242   O     0.92030   0.65610   0.99720   0.00000  Uiso   1.00
O243   O     0.62950   0.77450   0.27140   0.00000  Uiso   1.00
O244   O     0.72220   0.82930   0.38610   0.00000  Uiso   1.00
O245   O     0.83930   0.48270   0.34620   0.00000  Uiso   1.00
O246   O     0.74410   0.52100   0.15690   0.00000  Uiso   1.00
O247   O     0.29200   0.17320   0.02940   0.00000  Uiso   1.00
Si248  Si    0.82370   0.74020   0.19490   0.00000  Uiso   1.00
Cu249  Cu    0.71930   0.08302   0.96140   0.00000  Uiso   1.00
Cu250  Cu    0.81700   0.32921   0.94329   0.00000  Uiso   1.00
Cu251  Cu    0.21460   0.06819   0.95901   0.00000  Uiso   1.00
Cu252  Cu    0.32190   0.82711   0.95284   0.00000  Uiso   1.00
Cu253  Cu    0.43210   0.59543   0.93908   0.00000  Uiso   1.00
Cu254  Cu    0.93070   0.56465   0.93685   0.00000  Uiso   1.00
W255   W     0.10738   0.67758   0.18719   0.00000  Uiso   1.00
W256   W     0.04212   0.74791   0.32299   0.00000  Uiso   1.00
W257   W     0.84341   0.57583   0.30361   0.00000  Uiso   1.00
W258   W     0.02975   0.92297   0.21054   0.00000  Uiso   1.00
W259   W     0.76555   0.79407   0.32618   0.00000  Uiso   1.00
W260   W     0.60730   0.56957   0.17619   0.00000  Uiso   1.00
W261   W     0.59669   0.73179   0.07042   0.00000  Uiso   1.00
W262   W     0.90394   0.51117   0.16585   0.00000  Uiso   1.00
W263   W     0.89482   0.68091   0.06546   0.00000  Uiso   1.00
W264   W     0.80991   0.91708   0.09102   0.00000  Uiso   1.00
W265   W     0.53419   0.79209   0.19510   0.00000  Uiso   1.00
W266   W     0.75917   0.97584   0.21845   0.00000  Uiso   1.00
loop_
_geom_bond_atom_site_label_1
_geom_bond_atom_site_label_2
_geom_bond_distance
_geom_bond_site_symmetry_2
_ccdc_geom_bond_type
C1     H2      0.931   .     S
C1     N41     1.260   .     S
C1     N43     1.333   .     S
C3     H4      0.930   .     S
C3     N48     1.219   .     S
C3     N59     1.414   .     S
C5     H6      0.931   .     S
C5     N50     1.400   .     S
C5     N70     1.212   .     S
C7     H8      0.930   .     S
C7     N51     1.303   .     S
C7     N50     1.342   .     S
C9     H10     0.929   1_655 S
C9     N49     1.274   .     S
C9     N59     1.416   .     S
H10    C9      0.929   1_455 S
C11    H12     0.930   .     S
C11    N53     1.311   .     S
C11    N55     1.296   .     S
C13    H14     0.931   .     S
C13    N54     1.293   .     S
C13    N55     1.359   .     S
C15    H16     0.927   .     S
C15    N46     1.356   .     S
C15    N57     1.307   .     S
C17    H18     0.931   .     S
C17    N56     1.290   .     S
C17    N60     1.412   .     S
C19    H20     0.927   .     S
C19    N61     1.276   .     S
C19    N60     1.465   .     S
C21    H22     0.931   .     S
C21    N52     1.324   .     S
C21    N69     1.319   .     S
C23    H24     0.927   .     S
C23    N58     1.346   1_455 S
C23    N65     1.379   1_545 S
C25    H26     0.930   .     S
C25    N64     1.344   .     S
C25    N65     1.348   1_655 S
C27    H28     0.931   .     S
C27    N47     1.365   .     S
C27    N57     1.307   .     S
C29    H30     0.931   .     S
C29    N42     1.260   .     S
C29    N43     1.361   .     S
C31    H32     0.929   .     S
C31    N45     1.316   .     S
C31    N63     1.383   .     S
C33    H34     0.929   .     S
C33    N62     1.429   .     S
C33    N67     1.201   .     S
C35    H36     0.933   1_545 S
C35    N66     1.366   .     S
C35    N62     1.225   .     S
H36    C35     0.933   1_565 S
C37    H38     0.933   .     S
C37    N44     1.332   1_565 S
C37    N63     1.382   1_565 S
C39    H40     0.930   .     S
C39    N68     1.298   .     S
C39    N52     1.373   .     S
N41    Cu116   1.982   .     S
N41    N42     1.439   .     S
N42    Cu117   2.005   .     S
N43    Cu118   1.980   .     S
N44    C37     1.332   1_545 S
N44    N45     1.314   .     S
N44    Cu118   2.086   1_545 S
N45    Cu119   2.339   .     S
N46    N47     1.412   .     S
N46    Cu118   2.255   1_545 S
N47    Cu119   1.994   .     S
N48    N49     1.376   .     S
N48    Cu119   2.063   .     S
N49    Cu120   2.034   .     S
N50    Cu120   1.943   1_455 S
N51    Cu121   1.994   .     S
N51    N70     1.356   .     S
N52    Cu121   1.958   .     S
N53    N54     1.300   .     S
N53    Cu117   2.074   .     S
N54    Cu116   2.030   .     S
N56    N61     1.352   .     S
N56    Cu117   2.076   .     S
N58    C23     1.346   1_655 S
N58    N64     1.442   1_545 S
N58    Cu119   1.949   .     S
N61    Cu121   2.075   .     S
N62    Cu116   2.076   1_545 S
N63    C37     1.382   1_545 S
N64    N58     1.442   1_565 S
N64    Cu118   1.984   .     S
N65    C23     1.379   1_565 S
N65    Cu116   1.964   .     S
N65    C25     1.348   1_455 S
N66    N67     1.392   .     S
N68    Cu119   2.023   .     S
N68    N69     1.303   .     S
N69    Cu120   2.001   .     S
N70    Cu117   2.048   .     S
O71    Si115   1.589   .     S
O71    W127    2.351   .     S
O71    W128    2.425   .     S
O71    W132    2.390   .     S
O72    Si115   1.643   .     S
O72    W125    2.344   .     S
O72    W131    2.400   .     S
O72    W133    2.370   .     S
O73    Cu121   2.439   .     S
O74    Si115   1.643   .     S
O74    W122    2.352   .     S
O74    W129    2.382   .     S
O74    W130    2.362   .     S
O75    Cu120   2.065   .     S
O76    Si115   1.611   .     S
O76    W123    2.370   .     S
O76    W124    2.362   .     S
O76    W126    2.354   .     S
O77    Cu117   2.431   .     S
O78    W124    1.893   .     S
O78    W127    1.903   .     S
O79    W127    1.954   .     S
O79    W128    2.020   .     S
O80    W128    2.014   1_655 S
O80    W132    1.875   1_655 S
O81    W124    1.903   .     S
O81    W126    1.873   .     S
O82    W123    1.867   .     S
O82    W126    1.953   .     S
O83    W124    1.909   .     S
O83    W129    1.911   .     S
O84    W122    1.919   .     S
O84    W129    1.946   .     S
O85    W123    1.879   .     S
O85    W124    1.929   .     S
O86    W122    1.988   .     S
O86    W125    1.895   .     S
O87    W123    1.905   .     S
O87    W125    1.895   .     S
O88    W126    1.907   .     S
O88    W133    1.931   .     S
O89    W125    1.925   1_565 S
O89    W133    1.915   1_565 S
O90    W128    1.904   .     S
O90    W131    1.880   .     S
O91    W130    1.887   .     S
O91    W131    1.934   .     S
O92    W128    1.902   .     S
O92    W130    1.938   .     S
O93    W127    1.654   .     S
O94    W129    1.710   .     S
O95    W125    1.722   .     S
O96    W122    1.685   .     S
O97    W122    1.928   .     S
O97    W123    1.916   .     S
O98    Cu116   2.216   1_545 S
O98    W131    1.753   .     S
O99    W123    1.709   .     S
O99    Cu250   2.497   .     S
O100   W122    1.884   .     S
O100   W130    2.034   .     S
O101   W125    1.829   .     S
O101   W131    2.048   .     S
O102   W131    1.998   1_565 S
O102   W133    1.884   1_565 S
O103   W127    1.937   .     S
O103   W132    1.956   .     S
O104   W132    1.879   .     S
O104   W133    1.939   .     S
O105   W132    1.733   1_655 S
O106   W129    1.896   .     S
O106   W130    2.082   .     S
O107   W133    1.714   1_565 S
O108   W128    1.741   1_655 S
O108   Cu120   2.491   .     S
O109   W130    1.791   .     S
O109   Cu121   1.998   .     S
O110   W126    1.866   .     S
O110   W132    1.954   .     S
O111   W126    1.731   .     S
O111   Cu251   2.326   .     S
O112   W124    1.703   .     S
O113   W127    1.931   .     S
O113   W129    1.873   .     S
O114   Cu118   2.311   .     S
Cu116  O98     2.216   1_565 S
Cu116  N62     2.076   1_565 S
Cu117  O232    2.497   .     S
Cu118  O244    2.326   .     S
Cu118  N44     2.086   1_565 S
Cu118  N46     2.255   1_565 S
Cu120  N50     1.943   1_655 S
W125   O89     1.925   1_545 S
W128   O80     2.014   1_455 S
W128   O108    1.741   1_455 S
W131   O102    1.998   1_545 S
W132   O105    1.733   1_455 S
W132   O80     1.875   1_455 S
W133   O107    1.714   1_545 S
W133   O89     1.915   1_545 S
W133   O102    1.884   1_545 S
C134   H135    0.931   .     S
C134   N174    1.260   .     S
C134   N176    1.333   1_655 S
C136   H137    0.930   .     S
C136   N181    1.219   .     S
C136   N192    1.414   .     S
C138   H139    0.931   .     S
C138   N183    1.400   .     S
C138   N203    1.212   .     S
C140   H141    0.930   .     S
C140   N184    1.303   .     S
C140   N183    1.342   .     S
C142   H143    0.929   .     S
C142   N182    1.274   .     S
C142   N192    1.416   .     S
C144   H145    0.930   .     S
C144   N186    1.311   .     S
C144   N188    1.296   .     S
C146   H147    0.931   .     S
C146   N187    1.293   .     S
C146   N188    1.359   .     S
C148   H149    0.927   .     S
C148   N179    1.356   .     S
C148   N190    1.307   .     S
C150   H151    0.931   .     S
C150   N189    1.290   .     S
C150   N193    1.412   .     S
C152   H153    0.927   1_655 S
C152   N194    1.276   .     S
C152   N193    1.465   .     S
H153   C152    0.927   1_455 S
C154   H155    0.931   .     S
C154   N185    1.324   .     S
C154   N202    1.319   .     S
C156   H157    0.927   .     S
C156   N191    1.346   .     S
C156   N198    1.379   1_565 S
C158   H159    0.930   .     S
C158   N197    1.344   .     S
C158   N198    1.348   .     S
C160   H161    0.931   .     S
C160   N180    1.365   .     S
C160   N190    1.307   .     S
C162   H163    0.931   .     S
C162   N175    1.260   1_455 S
C162   N176    1.361   .     S
C164   H165    0.929   .     S
C164   N178    1.316   .     S
C164   N196    1.383   .     S
C166   H167    0.929   .     S
C166   N195    1.429   .     S
C166   N200    1.201   .     S
C168   H169    0.933   1_565 S
C168   N199    1.366   .     S
C168   N195    1.225   .     S
H169   C168    0.933   1_545 S
C170   H171    0.933   .     S
C170   N177    1.332   1_545 S
C170   N196    1.382   1_545 S
C172   H173    0.930   .     S
C172   N201    1.298   .     S
C172   N185    1.373   .     S
N174   Cu249   1.982   .     S
N174   N175    1.439   .     S
N175   C162    1.260   1_655 S
N175   Cu250   2.005   .     S
N176   C134    1.333   1_455 S
N176   Cu251   1.980   .     S
N177   C170    1.332   1_565 S
N177   N178    1.314   .     S
N177   Cu251   2.086   1_565 S
N178   Cu252   2.339   .     S
N179   N180    1.412   .     S
N179   Cu251   2.255   1_564 S
N180   Cu252   1.994   1_554 S
N181   N182    1.376   .     S
N181   Cu252   2.063   .     S
N182   Cu253   2.034   .     S
N183   Cu253   1.943   .     S
N184   Cu254   1.994   .     S
N184   N203    1.356   .     S
N185   Cu254   1.958   1_455 S
N186   N187    1.300   .     S
N186   Cu250   2.074   1_554 S
N187   Cu249   2.030   1_554 S
N189   N194    1.352   .     S
N189   Cu250   2.076   .     S
N191   N197    1.442   1_565 S
N191   Cu252   1.949   .     S
N194   Cu254   2.075   .     S
N195   Cu249   2.076   1_565 S
N196   C170    1.382   1_565 S
N197   N191    1.442   1_545 S
N197   Cu251   1.984   .     S
N198   C156    1.379   1_545 S
N198   Cu249   1.964   .     S
N199   N200    1.392   .     S
N201   Cu252   2.023   .     S
N201   N202    1.303   .     S
N202   Cu253   2.001   .     S
N203   Cu250   2.048   .     S
O204   Si248   1.589   .     S
O204   W260    2.351   .     S
O204   W261    2.425   .     S
O204   W265    2.390   .     S
O205   Si248   1.643   .     S
O205   W258    2.344   1_655 S
O205   W264    2.400   .     S
O205   W266    2.370   .     S
O206   Cu254   2.439   .     S
O207   Si248   1.643   .     S
O207   W255    2.352   1_655 S
O207   W262    2.382   .     S
O207   W263    2.362   .     S
O208   Cu253   2.065   1_554 S
O209   Si248   1.611   .     S
O209   W256    2.370   1_655 S
O209   W257    2.362   .     S
O209   W259    2.354   .     S
O210   Cu250   2.431   1_554 S
O211   W257    1.893   .     S
O211   W260    1.903   .     S
O212   W260    1.954   .     S
O212   W261    2.020   .     S
O213   W261    2.014   .     S
O213   W265    1.875   .     S
O214   W257    1.903   .     S
O214   W259    1.873   .     S
O215   W256    1.867   1_655 S
O215   W259    1.953   .     S
O216   W257    1.909   .     S
O216   W262    1.911   .     S
O217   W255    1.919   .     S
O217   W262    1.946   1_455 S
O218   W256    1.879   1_655 S
O218   W257    1.929   .     S
O219   W255    1.988   .     S
O219   W258    1.895   .     S
O220   W256    1.905   .     S
O220   W258    1.895   .     S
O221   W259    1.907   .     S
O221   W266    1.931   .     S
O222   W258    1.925   1_645 S
O222   W266    1.915   1_545 S
O223   W261    1.904   .     S
O223   W264    1.880   .     S
O224   W263    1.887   .     S
O224   W264    1.934   .     S
O225   W261    1.902   .     S
O225   W263    1.938   .     S
O226   W260    1.654   .     S
O227   W262    1.710   .     S
O228   W258    1.722   .     S
O229   W255    1.685   .     S
O230   W255    1.928   .     S
O230   W256    1.916   .     S
O231   Cu249   2.216   1_564 S
O231   W264    1.753   .     S
O232   W256    1.709   .     S
O233   W255    1.884   .     S
O233   W263    2.034   1_455 S
O234   W258    1.829   1_655 S
O234   W264    2.048   .     S
O235   W264    1.998   1_545 S
O235   W266    1.884   1_545 S
O236   W260    1.937   .     S
O236   W265    1.956   .     S
O237   W265    1.879   .     S
O237   W266    1.939   .     S
O238   W265    1.733   .     S
O239   W262    1.896   .     S
O239   W263    2.082   .     S
O240   W266    1.714   1_545 S
O241   W261    1.741   .     S
O241   Cu253   2.491   1_554 S
O242   W263    1.791   1_556 S
O242   Cu254   1.998   .     S
O243   W259    1.866   .     S
O243   W265    1.954   .     S
O244   W259    1.731   .     S
O245   W257    1.703   .     S
O246   W260    1.931   .     S
O246   W262    1.873   .     S
O247   Cu251   2.311   1_554 S
Cu249  O231    2.216   1_546 S
Cu249  N187    2.030   1_556 S
Cu249  N195    2.076   1_545 S
Cu250  O210    2.431   1_556 S
Cu250  N186    2.074   1_556 S
Cu251  O247    2.311   1_556 S
Cu251  N177    2.086   1_545 S
Cu251  N179    2.255   1_546 S
Cu252  N180    1.994   1_556 S
Cu253  O208    2.065   1_556 S
Cu253  O241    2.491   1_556 S
Cu254  N185    1.958   1_655 S
W255   O207    2.352   1_455 S
W256   O215    1.867   1_455 S
W256   O218    1.879   1_455 S
W256   O209    2.370   1_455 S
W258   O222    1.925   1_465 S
W258   O234    1.829   1_455 S
W258   O205    2.344   1_455 S
W262   O217    1.946   1_655 S
W263   O242    1.791   1_554 S
W263   O233    2.034   1_655 S
W264   O235    1.998   1_565 S
W266   O240    1.714   1_565 S
W266   O222    1.915   1_565 S
W266   O235    1.884   1_565 S
