data_EBIVIY_FSR
_audit_creation_date              2024-06-11
_audit_creation_method            'Materials Studio'
_symmetry_space_group_name_H-M    'P1'
_symmetry_Int_Tables_number       1
_symmetry_cell_setting            triclinic
loop_
_symmetry_equiv_pos_as_xyz
  x,y,z
_cell_length_a                    10.0192
_cell_length_b                    10.9995
_cell_length_c                    11.4502
_cell_angle_alpha                 70.5650
_cell_angle_beta                  69.6740
_cell_angle_gamma                 63.3280
loop_
_atom_site_label
_atom_site_type_symbol
_atom_site_fract_x
_atom_site_fract_y
_atom_site_fract_z
_atom_site_U_iso_or_equiv
_atom_site_adp_type
_atom_site_occupancy
Cd1    Cd    0.18071   0.74836   0.08987   0.00000  Uiso   1.00
O2     O     0.06640   0.78400   0.92700   0.00000  Uiso   1.00
O3     O     0.07550   0.68060   0.78500   0.00000  Uiso   1.00
O4     O     0.16410   0.43830   0.75380   0.00000  Uiso   1.00
H5     H     0.13177   0.51759   0.76488   0.00000  Uiso   1.00
O6     O     0.27700   0.22630   0.85440   0.00000  Uiso   1.00
O7     O     0.59910   0.28300   0.06670   0.00000  Uiso   1.00
O8     O     0.64890   0.06040   0.16740   0.00000  Uiso   1.00
O9     O     0.18300   0.96450   0.06220   0.00000  Uiso   1.00
H10    H     0.22000   0.98200   0.98200   0.00000  Uiso   1.00
H11    H     0.10000   1.03600   0.06500   0.00000  Uiso   1.00
O12    O    -0.05430   0.81910   0.22110   0.00000  Uiso   1.00
H13    H    -0.13600   0.82600   0.20900   0.00000  Uiso   1.00
H14    H    -0.09700   0.89100   0.25200   0.00000  Uiso   1.00
N15    N     0.19900   0.53320   0.07940   0.00000  Uiso   1.00
N16    N     0.27850   0.32010   0.05220   0.00000  Uiso   1.00
H17    H     0.31739   0.23066   0.06642   0.00000  Uiso   1.00
N18    N     0.30910   0.66500   0.24680   0.00000  Uiso   1.00
C19    C     0.10040   0.67920   0.88620   0.00000  Uiso   1.00
C20    C     0.17410   0.53910   0.96530   0.00000  Uiso   1.00
C21    C     0.22230   0.40700   0.94770   0.00000  Uiso   1.00
C22    C     0.22420   0.34940   0.84820   0.00000  Uiso   1.00
C23    C     0.26270   0.39770   0.12800   0.00000  Uiso   1.00
C24    C     0.30060   0.33800   0.25460   0.00000  Uiso   1.00
C25    C     0.18850   0.38700   0.35850   0.00000  Uiso   1.00
H26    H     0.09417   0.45690   0.34769   0.00000  Uiso   1.00
C27    C     0.21900   0.32990   0.48050   0.00000  Uiso   1.00
H28    H     0.14580   0.36390   0.55047   0.00000  Uiso   1.00
C29    C     0.35610   0.22430   0.49610   0.00000  Uiso   1.00
H30    H     0.37420   0.18530   0.57739   0.00000  Uiso   1.00
C31    C     0.46820   0.17470   0.39310   0.00000  Uiso   1.00
H32    H     0.56076   0.10240   0.40498   0.00000  Uiso   1.00
C33    C     0.44140   0.23400   0.27060   0.00000  Uiso   1.00
C34    C     0.57290   0.18850   0.15980   0.00000  Uiso   1.00
C35    C     0.43960   0.55540   0.23840   0.00000  Uiso   1.00
H36    H     0.48019   0.52208   0.16371   0.00000  Uiso   1.00
C37    C     0.52030   0.48660   0.33380   0.00000  Uiso   1.00
H38    H     0.61170   0.40977   0.32252   0.00000  Uiso   1.00
C39    C     0.46210   0.53450   0.44640   0.00000  Uiso   1.00
C40    C     0.32400   0.65050   0.45510   0.00000  Uiso   1.00
H41    H     0.28020   0.68638   0.52852   0.00000  Uiso   1.00
C42    C     0.25360   0.71090   0.35650   0.00000  Uiso   1.00
H43    H     0.16219   0.78817   0.36496   0.00000  Uiso   1.00
Cd44   Cd    0.81929   0.25164   0.91013   0.00000  Uiso   1.00
O45    O     0.93360   0.21600   0.07300   0.00000  Uiso   1.00
O46    O     0.92450   0.31940   0.21500   0.00000  Uiso   1.00
O47    O     0.83590   0.56170   0.24620   0.00000  Uiso   1.00
H48    H     0.86823   0.48241   0.23512   0.00000  Uiso   1.00
O49    O     0.72300   0.77370   0.14560   0.00000  Uiso   1.00
O50    O     0.40090   0.71700   0.93330   0.00000  Uiso   1.00
O51    O     0.35110   0.93960   0.83260   0.00000  Uiso   1.00
O52    O     0.81700   0.03550   0.93780   0.00000  Uiso   1.00
H53    H     0.78000   0.01800   0.01800   0.00000  Uiso   1.00
H54    H     0.90000  -0.03600   0.93500   0.00000  Uiso   1.00
O55    O     1.05430   0.18090   0.77890   0.00000  Uiso   1.00
H56    H     1.13600   0.17400   0.79100   0.00000  Uiso   1.00
H57    H     1.09700   0.10900   0.74800   0.00000  Uiso   1.00
N58    N     0.80100   0.46680   0.92060   0.00000  Uiso   1.00
N59    N     0.72150   0.67990   0.94780   0.00000  Uiso   1.00
H60    H     0.68261   0.76934   0.93358   0.00000  Uiso   1.00
N61    N     0.69090   0.33500   0.75320   0.00000  Uiso   1.00
C62    C     0.89960   0.32080   0.11380   0.00000  Uiso   1.00
C63    C     0.82590   0.46090   0.03470   0.00000  Uiso   1.00
C64    C     0.77770   0.59300   0.05230   0.00000  Uiso   1.00
C65    C     0.77580   0.65060   0.15180   0.00000  Uiso   1.00
C66    C     0.73730   0.60230   0.87200   0.00000  Uiso   1.00
C67    C     0.69940   0.66200   0.74540   0.00000  Uiso   1.00
C68    C     0.81150   0.61300   0.64150   0.00000  Uiso   1.00
H69    H     0.90583   0.54310   0.65231   0.00000  Uiso   1.00
C70    C     0.78100   0.67010   0.51950   0.00000  Uiso   1.00
H71    H     0.85420   0.63609   0.44953   0.00000  Uiso   1.00
C72    C     0.64390   0.77570   0.50390   0.00000  Uiso   1.00
H73    H     0.62580   0.81470   0.42261   0.00000  Uiso   1.00
C74    C     0.53180   0.82530   0.60690   0.00000  Uiso   1.00
H75    H     0.43924   0.89760   0.59502   0.00000  Uiso   1.00
C76    C     0.55860   0.76600   0.72940   0.00000  Uiso   1.00
C77    C     0.42710   0.81150   0.84020   0.00000  Uiso   1.00
C78    C     0.56040   0.44460   0.76160   0.00000  Uiso   1.00
H79    H     0.51981   0.47792   0.83629   0.00000  Uiso   1.00
C80    C     0.47970   0.51340   0.66620   0.00000  Uiso   1.00
H81    H     0.38830   0.59023   0.67749   0.00000  Uiso   1.00
C82    C     0.53790   0.46550   0.55360   0.00000  Uiso   1.00
C83    C     0.67600   0.34950   0.54490   0.00000  Uiso   1.00
H84    H     0.71980   0.31362   0.47148   0.00000  Uiso   1.00
C85    C     0.74640   0.28910   0.64350   0.00000  Uiso   1.00
H86    H     0.83781   0.21183   0.63504   0.00000  Uiso   1.00
loop_
_geom_bond_atom_site_label_1
_geom_bond_atom_site_label_2
_geom_bond_distance
_geom_bond_site_symmetry_2
_ccdc_geom_bond_type
Cd1    O2      2.353   1_554 S
Cd1    O9      2.301   .     S
Cd1    O12     2.254   .     S
Cd1    N15     2.331   .     S
Cd1    N18     2.275   .     S
Cd1    O50     2.276   1_554 S
O2     Cd1     2.353   1_556 S
O2     C19     1.248   .     S
O3     C19     1.261   .     S
O4     H5      0.820   .     S
O4     C22     1.307   .     S
O6     C22     1.199   .     S
O7     C34     1.264   .     S
O7     Cd44    2.276   1_554 S
O8     C34     1.255   .     S
O9     H10     0.853   1_554 S
O9     H11     0.850   .     S
H10    O9      0.853   1_556 S
O12    H13     0.843   .     S
O12    H14     0.843   .     S
N15    C20     1.389   1_554 S
N15    C23     1.334   .     S
N16    H17     0.860   .     S
N16    C21     1.373   1_554 S
N16    C23     1.335   .     S
N18    C35     1.322   .     S
N18    C42     1.352   .     S
C19    C20     1.502   .     S
C20    N15     1.389   1_556 S
C20    C21     1.372   .     S
C21    N16     1.373   1_556 S
C21    C22     1.468   .     S
C23    C24     1.484   .     S
C24    C25     1.386   .     S
C24    C33     1.387   .     S
C25    H26     0.930   .     S
C25    C27     1.407   .     S
C27    H28     0.930   .     S
C27    C29     1.367   .     S
C29    H30     0.930   .     S
C29    C31     1.381   .     S
C31    H32     0.930   .     S
C31    C33     1.400   .     S
C33    C34     1.505   .     S
C35    H36     0.930   .     S
C35    C37     1.391   .     S
C37    H38     0.930   .     S
C37    C39     1.391   .     S
C39    C40     1.399   .     S
C39    C82     1.473   .     S
C40    H41     0.930   .     S
C40    C42     1.359   .     S
C42    H43     0.930   .     S
Cd44   O45     2.353   1_556 S
Cd44   O52     2.301   .     S
Cd44   O55     2.254   .     S
Cd44   N58     2.331   .     S
Cd44   N61     2.275   .     S
Cd44   O7      2.276   1_556 S
O45    Cd44    2.353   1_554 S
O45    C62     1.248   .     S
O46    C62     1.261   .     S
O47    H48     0.820   .     S
O47    C65     1.307   .     S
O49    C65     1.199   .     S
O50    C77     1.264   .     S
O50    Cd1     2.276   1_556 S
O51    C77     1.255   .     S
O52    H53     0.853   1_556 S
O52    H54     0.850   .     S
H53    O52     0.853   1_554 S
O55    H56     0.843   .     S
O55    H57     0.843   .     S
N58    C63     1.389   1_556 S
N58    C66     1.334   .     S
N59    H60     0.860   .     S
N59    C64     1.373   1_556 S
N59    C66     1.335   .     S
N61    C78     1.322   .     S
N61    C85     1.352   .     S
C62    C63     1.502   .     S
C63    N58     1.389   1_554 S
C63    C64     1.372   .     S
C64    N59     1.373   1_554 S
C64    C65     1.468   .     S
C66    C67     1.484   .     S
C67    C68     1.386   .     S
C67    C76     1.387   .     S
C68    H69     0.930   .     S
C68    C70     1.407   .     S
C70    H71     0.930   .     S
C70    C72     1.367   .     S
C72    H73     0.930   .     S
C72    C74     1.381   .     S
C74    H75     0.930   .     S
C74    C76     1.400   .     S
C76    C77     1.505   .     S
C78    H79     0.930   .     S
C78    C80     1.391   .     S
C80    H81     0.930   .     S
C80    C82     1.391   .     S
C82    C83     1.399   .     S
C83    H84     0.930   .     S
C83    C85     1.359   .     S
C85    H86     0.930   .     S
