data_EDIKEL_FSR
_audit_creation_date              2024-06-11
_audit_creation_method            'Materials Studio'
_symmetry_space_group_name_H-M    'P1'
_symmetry_Int_Tables_number       1
_symmetry_cell_setting            triclinic
loop_
_symmetry_equiv_pos_as_xyz
  x,y,z
_cell_length_a                    21.4078
_cell_length_b                    21.4078
_cell_length_c                    8.0385
_cell_angle_alpha                 90.0000
_cell_angle_beta                  90.0000
_cell_angle_gamma                 120.0000
loop_
_atom_site_label
_atom_site_type_symbol
_atom_site_fract_x
_atom_site_fract_y
_atom_site_fract_z
_atom_site_U_iso_or_equiv
_atom_site_adp_type
_atom_site_occupancy
C1     C     0.96180   0.15760   0.22180   0.00000  Uiso   1.00
O2     O     0.02559   0.17593   0.19370   0.00000  Uiso   1.00
H3     H     0.80741   0.11827   0.83057   0.00000  Uiso   1.00
O4     O     0.93507   0.19660   0.18660   0.00000  Uiso   1.00
C5     C     0.62847   0.49093   0.55513   0.00000  Uiso   1.00
O6     O     0.69226   0.50926   0.52703   0.00000  Uiso   1.00
H7     H     0.47408   0.45161   0.16390   0.00000  Uiso   1.00
O8     O     0.60174   0.52993   0.51993   0.00000  Uiso   1.00
C9     C     0.29513   0.82427   0.88847   0.00000  Uiso   1.00
O10    O     0.35892   0.84260   0.86037   0.00000  Uiso   1.00
H11    H     0.14075   0.78494   0.49724   0.00000  Uiso   1.00
O12    O     0.26840   0.86327   0.85327   0.00000  Uiso   1.00
C13    C     0.84240   0.80420   0.22180   0.00000  Uiso   1.00
O14    O     0.82407   0.84966   0.19370   0.00000  Uiso   1.00
H15    H     0.88173   0.68914   0.83057   0.00000  Uiso   1.00
O16    O     0.80340   0.73847   0.18660   0.00000  Uiso   1.00
C17    C     0.50907   0.13753   0.55513   0.00000  Uiso   1.00
O18    O     0.49074   0.18299   0.52703   0.00000  Uiso   1.00
H19    H     0.54839   0.02247   0.16390   0.00000  Uiso   1.00
O20    O     0.47007   0.07180   0.51993   0.00000  Uiso   1.00
C21    C     0.17573   0.47087   0.88847   0.00000  Uiso   1.00
O22    O     0.15740   0.51633   0.86037   0.00000  Uiso   1.00
H23    H     0.21506   0.35580   0.49724   0.00000  Uiso   1.00
O24    O     0.13673   0.40514   0.85327   0.00000  Uiso   1.00
C25    C     0.19580   0.03820   0.22180   0.00000  Uiso   1.00
O26    O     0.15034   0.97441   0.19370   0.00000  Uiso   1.00
H27    H     0.31086   0.19259   0.83057   0.00000  Uiso   1.00
O28    O     0.26153   0.06493   0.18660   0.00000  Uiso   1.00
C29    C     0.86247   0.37153   0.55513   0.00000  Uiso   1.00
O30    O     0.81701   0.30774   0.52703   0.00000  Uiso   1.00
H31    H     0.97753   0.52592   0.16390   0.00000  Uiso   1.00
O32    O     0.92820   0.39826   0.51993   0.00000  Uiso   1.00
C33    C     0.52913   0.70487   0.88847   0.00000  Uiso   1.00
O34    O     0.48367   0.64108   0.86037   0.00000  Uiso   1.00
H35    H     0.64420   0.85925   0.49724   0.00000  Uiso   1.00
O36    O     0.59486   0.73160   0.85327   0.00000  Uiso   1.00
C37    C     0.15760   0.96180   0.77820   0.00000  Uiso   1.00
O38    O     0.17593   0.02559   0.80630   0.00000  Uiso   1.00
H39    H     0.11827   0.80741   0.16943   0.00000  Uiso   1.00
O40    O     0.19660   0.93507   0.81340   0.00000  Uiso   1.00
C41    C     0.82427   0.29513   0.11153   0.00000  Uiso   1.00
O42    O     0.84260   0.35892   0.13963   0.00000  Uiso   1.00
H43    H     0.78494   0.14075   0.50276   0.00000  Uiso   1.00
O44    O     0.86327   0.26840   0.14673   0.00000  Uiso   1.00
C45    C     0.49093   0.62847   0.44487   0.00000  Uiso   1.00
O46    O     0.50926   0.69226   0.47297   0.00000  Uiso   1.00
H47    H     0.45161   0.47408   0.83610   0.00000  Uiso   1.00
O48    O     0.52993   0.60174   0.48007   0.00000  Uiso   1.00
C49    C     0.80420   0.84240   0.77820   0.00000  Uiso   1.00
O50    O     0.84966   0.82407   0.80630   0.00000  Uiso   1.00
H51    H     0.68914   0.88173   0.16943   0.00000  Uiso   1.00
O52    O     0.73847   0.80340   0.81340   0.00000  Uiso   1.00
C53    C     0.47087   0.17573   0.11153   0.00000  Uiso   1.00
O54    O     0.51633   0.15740   0.13963   0.00000  Uiso   1.00
H55    H     0.35580   0.21506   0.50276   0.00000  Uiso   1.00
O56    O     0.40514   0.13673   0.14673   0.00000  Uiso   1.00
C57    C     0.13753   0.50907   0.44487   0.00000  Uiso   1.00
O58    O     0.18299   0.49074   0.47297   0.00000  Uiso   1.00
H59    H     0.02247   0.54839   0.83610   0.00000  Uiso   1.00
O60    O     0.07180   0.47007   0.48007   0.00000  Uiso   1.00
C61    C     0.03820   0.19580   0.77820   0.00000  Uiso   1.00
O62    O     0.97441   0.15034   0.80630   0.00000  Uiso   1.00
H63    H     0.19259   0.31086   0.16943   0.00000  Uiso   1.00
O64    O     0.06493   0.26153   0.81340   0.00000  Uiso   1.00
C65    C     0.70487   0.52913   0.11153   0.00000  Uiso   1.00
O66    O     0.64108   0.48367   0.13963   0.00000  Uiso   1.00
H67    H     0.85925   0.64420   0.50276   0.00000  Uiso   1.00
O68    O     0.73160   0.59486   0.14673   0.00000  Uiso   1.00
C69    C     0.37153   0.86247   0.44487   0.00000  Uiso   1.00
O70    O     0.30774   0.81701   0.47297   0.00000  Uiso   1.00
H71    H     0.52592   0.97753   0.83610   0.00000  Uiso   1.00
O72    O     0.39826   0.92820   0.48007   0.00000  Uiso   1.00
C73    C     0.03820   0.84240   0.77820   0.00000  Uiso   1.00
O74    O     0.97441   0.82407   0.80630   0.00000  Uiso   1.00
H75    H     0.19259   0.88173   0.16943   0.00000  Uiso   1.00
O76    O     0.06493   0.80340   0.81340   0.00000  Uiso   1.00
C77    C     0.70487   0.17573   0.11153   0.00000  Uiso   1.00
O78    O     0.64108   0.15740   0.13963   0.00000  Uiso   1.00
H79    H     0.85925   0.21506   0.50276   0.00000  Uiso   1.00
O80    O     0.73160   0.13673   0.14673   0.00000  Uiso   1.00
C81    C     0.37153   0.50907   0.44487   0.00000  Uiso   1.00
O82    O     0.30774   0.49074   0.47297   0.00000  Uiso   1.00
H83    H     0.52592   0.54839   0.83610   0.00000  Uiso   1.00
O84    O     0.39826   0.47007   0.48007   0.00000  Uiso   1.00
C85    C     0.15760   0.19580   0.77820   0.00000  Uiso   1.00
O86    O     0.17593   0.15034   0.80630   0.00000  Uiso   1.00
H87    H     0.11827   0.31086   0.16943   0.00000  Uiso   1.00
O88    O     0.19660   0.26153   0.81340   0.00000  Uiso   1.00
C89    C     0.82427   0.52913   0.11153   0.00000  Uiso   1.00
O90    O     0.84260   0.48367   0.13963   0.00000  Uiso   1.00
H91    H     0.78494   0.64420   0.50276   0.00000  Uiso   1.00
O92    O     0.86327   0.59486   0.14673   0.00000  Uiso   1.00
C93    C     0.49093   0.86247   0.44487   0.00000  Uiso   1.00
O94    O     0.50926   0.81701   0.47297   0.00000  Uiso   1.00
H95    H     0.45161   0.97753   0.83610   0.00000  Uiso   1.00
O96    O     0.52993   0.92820   0.48007   0.00000  Uiso   1.00
C97    C     0.80420   0.96180   0.77820   0.00000  Uiso   1.00
O98    O     0.84966   0.02559   0.80630   0.00000  Uiso   1.00
H99    H     0.68914   0.80741   0.16943   0.00000  Uiso   1.00
O100   O     0.73847   0.93507   0.81340   0.00000  Uiso   1.00
C101   C     0.47087   0.29513   0.11153   0.00000  Uiso   1.00
O102   O     0.51633   0.35892   0.13963   0.00000  Uiso   1.00
H103   H     0.35580   0.14075   0.50276   0.00000  Uiso   1.00
O104   O     0.40514   0.26840   0.14673   0.00000  Uiso   1.00
C105   C     0.13753   0.62847   0.44487   0.00000  Uiso   1.00
O106   O     0.18299   0.69226   0.47297   0.00000  Uiso   1.00
H107   H     0.02247   0.47408   0.83610   0.00000  Uiso   1.00
O108   O     0.07180   0.60174   0.48007   0.00000  Uiso   1.00
C109   C     0.84240   0.03820   0.22180   0.00000  Uiso   1.00
O110   O     0.82407   0.97441   0.19370   0.00000  Uiso   1.00
H111   H     0.88173   0.19259   0.83057   0.00000  Uiso   1.00
O112   O     0.80340   0.06493   0.18660   0.00000  Uiso   1.00
C113   C     0.50907   0.37153   0.55513   0.00000  Uiso   1.00
O114   O     0.49074   0.30774   0.52703   0.00000  Uiso   1.00
H115   H     0.54839   0.52592   0.16390   0.00000  Uiso   1.00
O116   O     0.47007   0.39826   0.51993   0.00000  Uiso   1.00
C117   C     0.17573   0.70487   0.88847   0.00000  Uiso   1.00
O118   O     0.15740   0.64108   0.86037   0.00000  Uiso   1.00
H119   H     0.21506   0.85925   0.49724   0.00000  Uiso   1.00
O120   O     0.13673   0.73160   0.85327   0.00000  Uiso   1.00
C121   C     0.19580   0.15760   0.22180   0.00000  Uiso   1.00
O122   O     0.15034   0.17593   0.19370   0.00000  Uiso   1.00
H123   H     0.31086   0.11827   0.83057   0.00000  Uiso   1.00
O124   O     0.26153   0.19660   0.18660   0.00000  Uiso   1.00
C125   C     0.86247   0.49093   0.55513   0.00000  Uiso   1.00
O126   O     0.81701   0.50926   0.52703   0.00000  Uiso   1.00
H127   H     0.97753   0.45161   0.16390   0.00000  Uiso   1.00
O128   O     0.92820   0.52993   0.51993   0.00000  Uiso   1.00
C129   C     0.52913   0.82427   0.88847   0.00000  Uiso   1.00
O130   O     0.48367   0.84260   0.86037   0.00000  Uiso   1.00
H131   H     0.64420   0.78494   0.49724   0.00000  Uiso   1.00
O132   O     0.59486   0.86327   0.85327   0.00000  Uiso   1.00
C133   C     0.96180   0.80420   0.22180   0.00000  Uiso   1.00
O134   O     0.02559   0.84966   0.19370   0.00000  Uiso   1.00
H135   H     0.80741   0.68914   0.83057   0.00000  Uiso   1.00
O136   O     0.93507   0.73847   0.18660   0.00000  Uiso   1.00
C137   C     0.62847   0.13753   0.55513   0.00000  Uiso   1.00
O138   O     0.69226   0.18299   0.52703   0.00000  Uiso   1.00
H139   H     0.47408   0.02247   0.16390   0.00000  Uiso   1.00
O140   O     0.60174   0.07180   0.51993   0.00000  Uiso   1.00
C141   C     0.29513   0.47087   0.88847   0.00000  Uiso   1.00
O142   O     0.35892   0.51633   0.86037   0.00000  Uiso   1.00
H143   H     0.14075   0.35580   0.49724   0.00000  Uiso   1.00
O144   O     0.26840   0.40514   0.85327   0.00000  Uiso   1.00
C145   C     0.91525   0.08475   0.31320   0.00000  Uiso   1.00
O146   O     0.90095   0.09905   0.47580   0.00000  Uiso   1.00
H147   H     0.87885   0.12115   0.47117   0.00000  Uiso   1.00
O148   O     0.84114   0.15886   0.87240   0.00000  Uiso   1.00
O149   O     0.95244   0.04756   0.32680   0.00000  Uiso   1.00
C150   C     0.58192   0.41808   0.64653   0.00000  Uiso   1.00
O151   O     0.56762   0.43238   0.80913   0.00000  Uiso   1.00
H152   H     0.54552   0.45448   0.80451   0.00000  Uiso   1.00
O153   O     0.50781   0.49219   0.20573   0.00000  Uiso   1.00
O154   O     0.61911   0.38089   0.66013   0.00000  Uiso   1.00
C155   C     0.24858   0.75142   0.97987   0.00000  Uiso   1.00
O156   O     0.23428   0.76572   0.14247   0.00000  Uiso   1.00
H157   H     0.21219   0.78781   0.13784   0.00000  Uiso   1.00
O158   O     0.17447   0.82553   0.53907   0.00000  Uiso   1.00
O159   O     0.28577   0.71423   0.99347   0.00000  Uiso   1.00
C160   C     0.91525   0.83050   0.31320   0.00000  Uiso   1.00
O161   O     0.90095   0.80190   0.47580   0.00000  Uiso   1.00
H162   H     0.87885   0.75771   0.47117   0.00000  Uiso   1.00
O163   O     0.84114   0.68228   0.87240   0.00000  Uiso   1.00
O164   O     0.95244   0.90488   0.32680   0.00000  Uiso   1.00
C165   C     0.58192   0.16383   0.64653   0.00000  Uiso   1.00
O166   O     0.56762   0.13523   0.80913   0.00000  Uiso   1.00
H167   H     0.54552   0.09104   0.80451   0.00000  Uiso   1.00
O168   O     0.50781   0.01561   0.20573   0.00000  Uiso   1.00
O169   O     0.61911   0.23821   0.66013   0.00000  Uiso   1.00
C170   C     0.24858   0.49717   0.97987   0.00000  Uiso   1.00
O171   O     0.23428   0.46857   0.14247   0.00000  Uiso   1.00
H172   H     0.21219   0.42437   0.13784   0.00000  Uiso   1.00
O173   O     0.17447   0.34895   0.53907   0.00000  Uiso   1.00
O174   O     0.28577   0.57155   0.99347   0.00000  Uiso   1.00
C175   C     0.16950   0.08475   0.31320   0.00000  Uiso   1.00
O176   O     0.19810   0.09905   0.47580   0.00000  Uiso   1.00
H177   H     0.24229   0.12115   0.47117   0.00000  Uiso   1.00
O178   O     0.31772   0.15886   0.87240   0.00000  Uiso   1.00
O179   O     0.09512   0.04756   0.32680   0.00000  Uiso   1.00
C180   C     0.83617   0.41808   0.64653   0.00000  Uiso   1.00
O181   O     0.86477   0.43238   0.80913   0.00000  Uiso   1.00
H182   H     0.90896   0.45448   0.80451   0.00000  Uiso   1.00
O183   O     0.98439   0.49219   0.20573   0.00000  Uiso   1.00
O184   O     0.76179   0.38089   0.66013   0.00000  Uiso   1.00
C185   C     0.50283   0.75142   0.97987   0.00000  Uiso   1.00
O186   O     0.53143   0.76572   0.14247   0.00000  Uiso   1.00
H187   H     0.57563   0.78781   0.13784   0.00000  Uiso   1.00
O188   O     0.65105   0.82553   0.53907   0.00000  Uiso   1.00
O189   O     0.42845   0.71423   0.99347   0.00000  Uiso   1.00
C190   C     0.08475   0.91525   0.68680   0.00000  Uiso   1.00
O191   O     0.09905   0.90095   0.52420   0.00000  Uiso   1.00
H192   H     0.12115   0.87885   0.52883   0.00000  Uiso   1.00
O193   O     0.15886   0.84114   0.12760   0.00000  Uiso   1.00
O194   O     0.04756   0.95244   0.67320   0.00000  Uiso   1.00
C195   C     0.75142   0.24858   0.02013   0.00000  Uiso   1.00
O196   O     0.76572   0.23428   0.85753   0.00000  Uiso   1.00
H197   H     0.78781   0.21219   0.86216   0.00000  Uiso   1.00
O198   O     0.82553   0.17447   0.46093   0.00000  Uiso   1.00
O199   O     0.71423   0.28577   0.00653   0.00000  Uiso   1.00
C200   C     0.41808   0.58192   0.35347   0.00000  Uiso   1.00
O201   O     0.43238   0.56762   0.19087   0.00000  Uiso   1.00
H202   H     0.45448   0.54552   0.19549   0.00000  Uiso   1.00
O203   O     0.49219   0.50781   0.79427   0.00000  Uiso   1.00
O204   O     0.38089   0.61911   0.33987   0.00000  Uiso   1.00
C205   C     0.83050   0.91525   0.68680   0.00000  Uiso   1.00
O206   O     0.80190   0.90095   0.52420   0.00000  Uiso   1.00
H207   H     0.75771   0.87885   0.52883   0.00000  Uiso   1.00
O208   O     0.68228   0.84114   0.12760   0.00000  Uiso   1.00
O209   O     0.90488   0.95244   0.67320   0.00000  Uiso   1.00
C210   C     0.49717   0.24858   0.02013   0.00000  Uiso   1.00
O211   O     0.46857   0.23428   0.85753   0.00000  Uiso   1.00
H212   H     0.42437   0.21219   0.86216   0.00000  Uiso   1.00
O213   O     0.34895   0.17447   0.46093   0.00000  Uiso   1.00
O214   O     0.57155   0.28577   0.00653   0.00000  Uiso   1.00
C215   C     0.16383   0.58192   0.35347   0.00000  Uiso   1.00
O216   O     0.13523   0.56762   0.19087   0.00000  Uiso   1.00
H217   H     0.09104   0.54552   0.19549   0.00000  Uiso   1.00
O218   O     0.01561   0.50781   0.79427   0.00000  Uiso   1.00
O219   O     0.23821   0.61911   0.33987   0.00000  Uiso   1.00
C220   C     0.08475   0.16950   0.68680   0.00000  Uiso   1.00
O221   O     0.09905   0.19810   0.52420   0.00000  Uiso   1.00
H222   H     0.12115   0.24229   0.52883   0.00000  Uiso   1.00
O223   O     0.15886   0.31772   0.12760   0.00000  Uiso   1.00
O224   O     0.04756   0.09512   0.67320   0.00000  Uiso   1.00
C225   C     0.75142   0.50283   0.02013   0.00000  Uiso   1.00
O226   O     0.76572   0.53143   0.85753   0.00000  Uiso   1.00
H227   H     0.78781   0.57563   0.86216   0.00000  Uiso   1.00
O228   O     0.82553   0.65105   0.46093   0.00000  Uiso   1.00
O229   O     0.71423   0.42845   0.00653   0.00000  Uiso   1.00
C230   C     0.41808   0.83617   0.35347   0.00000  Uiso   1.00
O231   O     0.43238   0.86477   0.19087   0.00000  Uiso   1.00
H232   H     0.45448   0.90896   0.19549   0.00000  Uiso   1.00
O233   O     0.49219   0.98439   0.79427   0.00000  Uiso   1.00
O234   O     0.38089   0.76179   0.33987   0.00000  Uiso   1.00
Cl235  Cl    0.00000   0.00000   0.00000   0.00000  Uiso   1.00
Cl236  Cl    0.66667   0.33333   0.33333   0.00000  Uiso   1.00
Cl237  Cl    0.33333   0.66667   0.66667   0.00000  Uiso   1.00
Cu238  Cu    0.05346   0.10693   0.26685   0.00000  Uiso   1.00
Cu239  Cu    0.72013   0.44026   0.60018   0.00000  Uiso   1.00
Cu240  Cu    0.38680   0.77360   0.93352   0.00000  Uiso   1.00
Cu241  Cu    0.89307   0.94654   0.26685   0.00000  Uiso   1.00
Cu242  Cu    0.55974   0.27987   0.60018   0.00000  Uiso   1.00
Cu243  Cu    0.22640   0.61320   0.93352   0.00000  Uiso   1.00
Cu244  Cu    0.05346   0.94654   0.26685   0.00000  Uiso   1.00
Cu245  Cu    0.72013   0.27987   0.60018   0.00000  Uiso   1.00
Cu246  Cu    0.38680   0.61320   0.93352   0.00000  Uiso   1.00
Cu247  Cu    0.10693   0.05346   0.73315   0.00000  Uiso   1.00
Cu248  Cu    0.77360   0.38680   0.06648   0.00000  Uiso   1.00
Cu249  Cu    0.44026   0.72013   0.39982   0.00000  Uiso   1.00
Cu250  Cu    0.94654   0.89307   0.73315   0.00000  Uiso   1.00
Cu251  Cu    0.61320   0.22640   0.06648   0.00000  Uiso   1.00
Cu252  Cu    0.27987   0.55974   0.39982   0.00000  Uiso   1.00
Cu253  Cu    0.94654   0.05346   0.73315   0.00000  Uiso   1.00
Cu254  Cu    0.61320   0.38680   0.06648   0.00000  Uiso   1.00
Cu255  Cu    0.27987   0.72013   0.39982   0.00000  Uiso   1.00
Cu256  Cu    0.83333   0.16667   0.16667   0.00000  Uiso   1.00
Cu257  Cu    0.50000   0.50000   0.50000   0.00000  Uiso   1.00
Cu258  Cu    0.83333   0.66667   0.16667   0.00000  Uiso   1.00
Cu259  Cu    0.50000   0.00000   0.50000   0.00000  Uiso   1.00
Cu260  Cu    0.33333   0.16667   0.16667   0.00000  Uiso   1.00
Cu261  Cu    0.00000   0.50000   0.50000   0.00000  Uiso   1.00
Cu262  Cu    0.16667   0.83333   0.83333   0.00000  Uiso   1.00
Cu263  Cu    0.66667   0.83333   0.83333   0.00000  Uiso   1.00
Cu264  Cu    0.16667   0.33333   0.83333   0.00000  Uiso   1.00
loop_
_geom_bond_atom_site_label_1
_geom_bond_atom_site_label_2
_geom_bond_distance
_geom_bond_site_symmetry_2
_ccdc_geom_bond_type
C1     C145    1.553   .     S
C1     O2      1.239   1_655 S
C1     O4      1.258   .     S
O2     Cu238   1.940   .     S
O2     C1      1.239   1_455 S
H3     O148    0.873   .     S
O4     Cu256   1.945   .     S
C5     C150    1.553   .     S
C5     O6      1.239   .     S
C5     O8      1.258   .     S
O6     Cu239   1.940   .     S
H7     O153    0.873   .     S
O8     Cu257   1.945   .     S
C9     C155    1.553   .     S
C9     O10     1.239   .     S
C9     O12     1.258   .     S
O10    Cu240   1.940   .     S
H11    O158    0.873   .     S
O12    Cu262   1.945   .     S
C13    C160    1.553   .     S
C13    O14     1.239   .     S
C13    O16     1.258   .     S
O14    Cu241   1.940   .     S
H15    O163    0.873   .     S
O16    Cu258   1.945   .     S
C17    C165    1.553   .     S
C17    O18     1.239   .     S
C17    O20     1.258   .     S
O18    Cu242   1.940   .     S
H19    O168    0.873   .     S
O20    Cu259   1.945   .     S
C21    C170    1.553   .     S
C21    O22     1.239   .     S
C21    O24     1.258   .     S
O22    Cu243   1.940   .     S
H23    O173    0.873   .     S
O24    Cu264   1.945   .     S
C25    C175    1.553   .     S
C25    O26     1.239   1_545 S
C25    O28     1.258   .     S
O26    Cu244   1.940   .     S
O26    C25     1.239   1_565 S
H27    O178    0.873   .     S
O28    Cu260   1.945   .     S
C29    C180    1.553   .     S
C29    O30     1.239   .     S
C29    O32     1.258   .     S
O30    Cu245   1.940   .     S
H31    O183    0.873   .     S
O32    Cu261   1.945   1_655 S
C33    C185    1.553   .     S
C33    O34     1.239   .     S
C33    O36     1.258   .     S
O34    Cu246   1.940   .     S
H35    O188    0.873   .     S
O36    Cu263   1.945   .     S
C37    C190    1.553   .     S
C37    O38     1.239   1_565 S
C37    O40     1.258   .     S
O38    Cu247   1.940   .     S
O38    C37     1.239   1_545 S
H39    O193    0.873   .     S
O40    Cu262   1.945   .     S
C41    C195    1.553   .     S
C41    O42     1.239   .     S
C41    O44     1.258   .     S
O42    Cu248   1.940   .     S
H43    O198    0.873   .     S
O44    Cu256   1.945   .     S
C45    C200    1.553   .     S
C45    O46     1.239   .     S
C45    O48     1.258   .     S
O46    Cu249   1.940   .     S
H47    O203    0.873   .     S
O48    Cu257   1.945   .     S
C49    C205    1.553   .     S
C49    O50     1.239   .     S
C49    O52     1.258   .     S
O50    Cu250   1.940   .     S
H51    O208    0.873   .     S
O52    Cu263   1.945   .     S
C53    C210    1.553   .     S
C53    O54     1.239   .     S
C53    O56     1.258   .     S
O54    Cu251   1.940   .     S
H55    O213    0.873   .     S
O56    Cu260   1.945   .     S
C57    C215    1.553   .     S
C57    O58     1.239   .     S
C57    O60     1.258   .     S
O58    Cu252   1.940   .     S
H59    O218    0.873   .     S
O60    Cu261   1.945   .     S
C61    C220    1.553   .     S
C61    O62     1.239   1_455 S
C61    O64     1.258   .     S
O62    Cu253   1.940   .     S
O62    C61     1.239   1_655 S
H63    O223    0.873   .     S
O64    Cu264   1.945   .     S
C65    C225    1.553   .     S
C65    O66     1.239   .     S
C65    O68     1.258   .     S
O66    Cu254   1.940   .     S
H67    O228    0.873   .     S
O68    Cu258   1.945   .     S
C69    C230    1.553   .     S
C69    O70     1.239   .     S
C69    O72     1.258   .     S
O70    Cu255   1.940   .     S
H71    O233    0.873   .     S
O72    Cu259   1.945   1_565 S
C73    C190    1.553   .     S
C73    O74     1.239   1_455 S
C73    O76     1.258   .     S
O74    Cu250   1.940   .     S
O74    C73     1.239   1_655 S
H75    O193    0.873   .     S
O76    Cu262   1.945   .     S
C77    C195    1.553   .     S
C77    O78     1.239   .     S
C77    O80     1.258   .     S
O78    Cu251   1.940   .     S
H79    O198    0.873   .     S
O80    Cu256   1.945   .     S
C81    C200    1.553   .     S
C81    O82     1.239   .     S
C81    O84     1.258   .     S
O82    Cu252   1.940   .     S
H83    O203    0.873   .     S
O84    Cu257   1.945   .     S
C85    C220    1.553   .     S
C85    O86     1.239   .     S
C85    O88     1.258   .     S
O86    Cu247   1.940   .     S
H87    O223    0.873   .     S
O88    Cu264   1.945   .     S
C89    C225    1.553   .     S
C89    O90     1.239   .     S
C89    O92     1.258   .     S
O90    Cu248   1.940   .     S
H91    O228    0.873   .     S
O92    Cu258   1.945   .     S
C93    C230    1.553   .     S
C93    O94     1.239   .     S
C93    O96     1.258   .     S
O94    Cu249   1.940   .     S
H95    O233    0.873   .     S
O96    Cu259   1.945   1_565 S
C97    C205    1.553   .     S
C97    O98     1.239   1_565 S
C97    O100    1.258   .     S
O98    Cu253   1.940   .     S
O98    C97     1.239   1_545 S
H99    O208    0.873   .     S
O100   Cu263   1.945   .     S
C101   C210    1.553   .     S
C101   O102    1.239   .     S
C101   O104    1.258   .     S
O102   Cu254   1.940   .     S
H103   O213    0.873   .     S
O104   Cu260   1.945   .     S
C105   C215    1.553   .     S
C105   O106    1.239   .     S
C105   O108    1.258   .     S
O106   Cu255   1.940   .     S
H107   O218    0.873   .     S
O108   Cu261   1.945   .     S
C109   C145    1.553   .     S
C109   O110    1.239   1_545 S
C109   O112    1.258   .     S
O110   Cu241   1.940   .     S
O110   C109    1.239   1_565 S
H111   O148    0.873   .     S
O112   Cu256   1.945   .     S
C113   C150    1.553   .     S
C113   O114    1.239   .     S
C113   O116    1.258   .     S
O114   Cu242   1.940   .     S
H115   O153    0.873   .     S
O116   Cu257   1.945   .     S
C117   C155    1.553   .     S
C117   O118    1.239   .     S
C117   O120    1.258   .     S
O118   Cu243   1.940   .     S
H119   O158    0.873   .     S
O120   Cu262   1.945   .     S
C121   C175    1.553   .     S
C121   O122    1.239   .     S
C121   O124    1.258   .     S
O122   Cu238   1.940   .     S
H123   O178    0.873   .     S
O124   Cu260   1.945   .     S
C125   C180    1.553   .     S
C125   O126    1.239   .     S
C125   O128    1.258   .     S
O126   Cu239   1.940   .     S
H127   O183    0.873   .     S
O128   Cu261   1.945   1_655 S
C129   C185    1.553   .     S
C129   O130    1.239   .     S
C129   O132    1.258   .     S
O130   Cu240   1.940   .     S
H131   O188    0.873   .     S
O132   Cu263   1.945   .     S
C133   C160    1.553   .     S
C133   O134    1.239   1_655 S
C133   O136    1.258   .     S
O134   Cu244   1.940   .     S
O134   C133    1.239   1_455 S
H135   O163    0.873   .     S
O136   Cu258   1.945   .     S
C137   C165    1.553   .     S
C137   O138    1.239   .     S
C137   O140    1.258   .     S
O138   Cu245   1.940   .     S
H139   O168    0.873   .     S
O140   Cu259   1.945   .     S
C141   C170    1.553   .     S
C141   O142    1.239   .     S
C141   O144    1.258   .     S
O142   Cu246   1.940   .     S
H143   O173    0.873   .     S
O144   Cu264   1.945   .     S
C145   O146    1.411   .     S
C145   O149    1.383   .     S
O146   H147    0.820   .     S
O146   Cu253   2.671   .     S
O148   Cu256   2.383   1_556 S
O149   Cu238   1.943   1_655 S
O149   Cu241   1.943   1_545 S
C150   O151    1.411   .     S
C150   O154    1.383   .     S
O151   H152    0.820   .     S
O151   Cu254   2.671   1_556 S
O153   Cu257   2.383   .     S
O154   Cu239   1.943   .     S
O154   Cu242   1.943   .     S
C155   O156    1.411   1_556 S
C155   O159    1.383   .     S
O156   C155    1.411   1_554 S
O156   H157    0.820   .     S
O156   Cu255   2.671   .     S
O158   Cu262   2.383   .     S
O159   Cu240   1.943   .     S
O159   Cu243   1.943   .     S
C160   O161    1.411   .     S
C160   O164    1.383   .     S
O161   H162    0.820   .     S
O161   Cu250   2.671   .     S
O163   Cu258   2.383   1_556 S
O164   Cu241   1.943   .     S
O164   Cu244   1.943   1_655 S
C165   O166    1.411   .     S
C165   O169    1.383   .     S
O166   H167    0.820   .     S
O166   Cu251   2.671   1_556 S
O168   Cu259   2.383   .     S
O169   Cu242   1.943   .     S
O169   Cu245   1.943   .     S
C170   O171    1.411   1_556 S
C170   O174    1.383   .     S
O171   C170    1.411   1_554 S
O171   H172    0.820   .     S
O171   Cu252   2.671   .     S
O173   Cu264   2.383   .     S
O174   Cu243   1.943   .     S
O174   Cu246   1.943   .     S
C175   O176    1.411   .     S
C175   O179    1.383   .     S
O176   H177    0.820   .     S
O176   Cu247   2.671   .     S
O178   Cu260   2.383   1_556 S
O179   Cu244   1.943   1_545 S
O179   Cu238   1.943   .     S
C180   O181    1.411   .     S
C180   O184    1.383   .     S
O181   H182    0.820   .     S
O181   Cu248   2.671   1_556 S
O183   Cu261   2.383   1_655 S
O184   Cu245   1.943   .     S
O184   Cu239   1.943   .     S
C185   O186    1.411   1_556 S
C185   O189    1.383   .     S
O186   C185    1.411   1_554 S
O186   H187    0.820   .     S
O186   Cu249   2.671   .     S
O188   Cu263   2.383   .     S
O189   Cu246   1.943   .     S
O189   Cu240   1.943   .     S
C190   O191    1.411   .     S
C190   O194    1.383   .     S
O191   H192    0.820   .     S
O191   Cu244   2.671   .     S
O193   Cu262   2.383   1_554 S
O194   Cu247   1.943   1_565 S
O194   Cu250   1.943   1_455 S
C195   O196    1.411   1_554 S
C195   O199    1.383   .     S
O196   C195    1.411   1_556 S
O196   H197    0.820   .     S
O196   Cu245   2.671   .     S
O198   Cu256   2.383   .     S
O199   Cu248   1.943   .     S
O199   Cu251   1.943   .     S
C200   O201    1.411   .     S
C200   O204    1.383   .     S
O201   H202    0.820   .     S
O201   Cu246   2.671   1_554 S
O203   Cu257   2.383   .     S
O204   Cu249   1.943   .     S
O204   Cu252   1.943   .     S
C205   O206    1.411   .     S
C205   O209    1.383   .     S
O206   H207    0.820   .     S
O206   Cu241   2.671   .     S
O208   Cu263   2.383   1_554 S
O209   Cu250   1.943   .     S
O209   Cu253   1.943   1_565 S
C210   O211    1.411   1_554 S
C210   O214    1.383   .     S
O211   C210    1.411   1_556 S
O211   H212    0.820   .     S
O211   Cu242   2.671   .     S
O213   Cu260   2.383   .     S
O214   Cu251   1.943   .     S
O214   Cu254   1.943   .     S
C215   O216    1.411   .     S
C215   O219    1.383   .     S
O216   H217    0.820   .     S
O216   Cu243   2.671   1_554 S
O218   Cu261   2.383   .     S
O219   Cu252   1.943   .     S
O219   Cu255   1.943   .     S
C220   O221    1.411   .     S
C220   O224    1.383   .     S
O221   H222    0.820   .     S
O221   Cu238   2.671   .     S
O223   Cu264   2.383   1_554 S
O224   Cu253   1.943   1_455 S
O224   Cu247   1.943   .     S
C225   O226    1.411   1_554 S
C225   O229    1.383   .     S
O226   C225    1.411   1_556 S
O226   H227    0.820   .     S
O226   Cu239   2.671   .     S
O228   Cu258   2.383   .     S
O229   Cu254   1.943   .     S
O229   Cu248   1.943   .     S
C230   O231    1.411   .     S
C230   O234    1.383   .     S
O231   H232    0.820   .     S
O231   Cu240   2.671   1_554 S
O233   Cu259   2.383   1_565 S
O234   Cu255   1.943   .     S
O234   Cu249   1.943   .     S
Cl235  Cu238   2.921   .     S
Cl235  Cu241   2.921   1_445 S
Cl235  Cu244   2.921   1_545 S
Cl235  Cu247   2.921   1_554 S
Cl235  Cu250   2.921   1_444 S
Cl235  Cu253   2.921   1_454 S
Cl236  Cu239   2.921   .     S
Cl236  Cu242   2.921   .     S
Cl236  Cu245   2.921   .     S
Cl236  Cu248   2.921   .     S
Cl236  Cu251   2.921   .     S
Cl236  Cu254   2.921   .     S
Cl237  Cu240   2.921   .     S
Cl237  Cu243   2.921   .     S
Cl237  Cu246   2.921   .     S
Cl237  Cu249   2.921   .     S
Cl237  Cu252   2.921   .     S
Cl237  Cu255   2.921   .     S
Cu238  O149    1.943   1_455 S
Cu240  O231    2.671   1_556 S
Cu241  Cl235   2.921   1_665 S
Cu241  O149    1.943   1_565 S
Cu243  O216    2.671   1_556 S
Cu244  Cl235   2.921   1_565 S
Cu244  O164    1.943   1_455 S
Cu244  O179    1.943   1_565 S
Cu246  O201    2.671   1_556 S
Cu247  Cl235   2.921   1_556 S
Cu247  O194    1.943   1_545 S
Cu248  O181    2.671   1_554 S
Cu250  Cl235   2.921   1_666 S
Cu250  O194    1.943   1_655 S
Cu251  O166    2.671   1_554 S
Cu253  Cl235   2.921   1_656 S
Cu253  O209    1.943   1_545 S
Cu253  O224    1.943   1_655 S
Cu254  O151    2.671   1_554 S
Cu256  O148    2.383   1_554 S
Cu258  O163    2.383   1_554 S
Cu259  O233    2.383   1_545 S
Cu259  O96     1.945   1_545 S
Cu259  O72     1.945   1_545 S
Cu260  O178    2.383   1_554 S
Cu261  O183    2.383   1_455 S
Cu261  O128    1.945   1_455 S
Cu261  O32     1.945   1_455 S
Cu262  O193    2.383   1_556 S
Cu263  O208    2.383   1_556 S
Cu264  O223    2.383   1_556 S
