data_EFEDAX_FSR
_audit_creation_date              2024-06-11
_audit_creation_method            'Materials Studio'
_symmetry_space_group_name_H-M    'P1'
_symmetry_Int_Tables_number       1
_symmetry_cell_setting            triclinic
loop_
_symmetry_equiv_pos_as_xyz
  x,y,z
_cell_length_a                    12.9090
_cell_length_b                    10.2381
_cell_length_c                    19.4840
_cell_angle_alpha                 90.0000
_cell_angle_beta                  106.5250
_cell_angle_gamma                 90.0000
loop_
_atom_site_label
_atom_site_type_symbol
_atom_site_fract_x
_atom_site_fract_y
_atom_site_fract_z
_atom_site_U_iso_or_equiv
_atom_site_adp_type
_atom_site_occupancy
Co1    Co    0.69772   0.76336   0.88173   0.00000  Uiso   1.00
Ca2    Ca    0.47894   0.74196   0.56187   0.00000  Uiso   1.00
P3     P     0.73030   0.49280   0.93642   0.00000  Uiso   1.00
P4     P     0.51491   0.76079   0.74999   0.00000  Uiso   1.00
P5     P     0.65709   0.94301   0.99096   0.00000  Uiso   1.00
C6     C     0.77670   0.68990   0.76930   0.00000  Uiso   1.00
H7     H     0.71070   0.64950   0.74050   0.00000  Uiso   1.00
H8     H     0.83620   0.65900   0.75240   0.00000  Uiso   1.00
C9     C     0.76800   0.83650   0.76230   0.00000  Uiso   1.00
H10    H     0.73460   0.85980   0.71260   0.00000  Uiso   1.00
H11    H     0.83960   0.87490   0.77700   0.00000  Uiso   1.00
C12    C     0.75230   0.01050   0.84720   0.00000  Uiso   1.00
H13    H     0.70130   0.05670   0.86660   0.00000  Uiso   1.00
H14    H     0.77460   0.06850   0.81470   0.00000  Uiso   1.00
C15    C     0.84990   0.96850   0.90750   0.00000  Uiso   1.00
H16    H     0.90960   0.94860   0.88810   0.00000  Uiso   1.00
H17    H     0.87210   0.03940   0.94150   0.00000  Uiso   1.00
C18    C     0.91250   0.75140   0.95860   0.00000  Uiso   1.00
H19    H     0.90340   0.68710   0.99290   0.00000  Uiso   1.00
H20    H     0.98150   0.79460   0.97830   0.00000  Uiso   1.00
C21    C     0.91090   0.68470   0.88900   0.00000  Uiso   1.00
H22    H     0.95230   0.60440   0.89910   0.00000  Uiso   1.00
H23    H     0.94420   0.74110   0.86130   0.00000  Uiso   1.00
C24    C     0.76610   0.51350   0.85350   0.00000  Uiso   1.00
H25    H     0.82680   0.45750   0.85360   0.00000  Uiso   1.00
H26    H     0.70560   0.48880   0.81320   0.00000  Uiso   1.00
C27    C     0.58680   0.91590   0.76540   0.00000  Uiso   1.00
H28    H     0.58550   0.95590   0.72010   0.00000  Uiso   1.00
H29    H     0.55230   0.97500   0.79110   0.00000  Uiso   1.00
C30    C     0.79610   0.88460   0.01230   0.00000  Uiso   1.00
H31    H     0.84500   0.95200   0.03760   0.00000  Uiso   1.00
H32    H     0.80480   0.80860   0.04310   0.00000  Uiso   1.00
N33    N     0.79560   0.65420   0.84608   0.00000  Uiso   1.00
N34    N     0.70070   0.89040   0.80838   0.00000  Uiso   1.00
N35    N     0.82300   0.84960   0.94501   0.00000  Uiso   1.00
O36    O     0.69950   0.63110   0.95325   0.00000  Uiso   1.00
O37    O     0.64680   0.39110   0.92876   0.00000  Uiso   1.00
O38    O     0.83640   0.45550   0.99634   0.00000  Uiso   1.00
H39    H     0.83170   0.38010   0.00940   0.00000  Uiso   1.00
O40    O     0.57140   0.68420   0.81726   0.00000  Uiso   1.00
O41    O     0.51680   0.69750   0.68143   0.00000  Uiso   1.00
O42    O     0.39430   0.78940   0.74588   0.00000  Uiso   1.00
H43    H     0.39140   0.82470   0.78300   0.00000  Uiso   1.00
O44    O     0.60540   0.87140   0.91975   0.00000  Uiso   1.00
O45    O     0.61100   0.90140   0.05050   0.00000  Uiso   1.00
O46    O     0.65660   0.09000   0.98083   0.00000  Uiso   1.00
O47    O     0.61090   0.91290   0.57939   0.00000  Uiso   1.00
H48    H     0.59930   0.99460   0.57960   0.00000  Uiso   1.00
H49    H     0.64280   0.89330   0.54820   0.00000  Uiso   1.00
O50    O     0.44350   0.81490   0.43607   0.00000  Uiso   1.00
H51    H     0.50480   0.81200   0.42790   0.00000  Uiso   1.00
H52    H     0.39980   0.75980   0.41070   0.00000  Uiso   1.00
Co53   Co    0.30228   0.26336   0.61827   0.00000  Uiso   1.00
Ca54   Ca    0.52106   0.24196   0.93813   0.00000  Uiso   1.00
P55    P     0.26970   0.99280   0.56358   0.00000  Uiso   1.00
P56    P     0.48509   0.26079   0.75001   0.00000  Uiso   1.00
P57    P     0.34291   0.44301   0.50904   0.00000  Uiso   1.00
C58    C     0.22330   0.18990   0.73070   0.00000  Uiso   1.00
H59    H     0.28930   0.14950   0.75950   0.00000  Uiso   1.00
H60    H     0.16380   0.15900   0.74760   0.00000  Uiso   1.00
C61    C     0.23200   0.33650   0.73770   0.00000  Uiso   1.00
H62    H     0.26540   0.35980   0.78740   0.00000  Uiso   1.00
H63    H     0.16040   0.37490   0.72300   0.00000  Uiso   1.00
C64    C     0.24770   0.51050   0.65280   0.00000  Uiso   1.00
H65    H     0.29870   0.55670   0.63340   0.00000  Uiso   1.00
H66    H     0.22540   0.56850   0.68530   0.00000  Uiso   1.00
C67    C     0.15010   0.46850   0.59250   0.00000  Uiso   1.00
H68    H     0.09040   0.44860   0.61190   0.00000  Uiso   1.00
H69    H     0.12790   0.53940   0.55850   0.00000  Uiso   1.00
C70    C     0.08750   0.25140   0.54140   0.00000  Uiso   1.00
H71    H     0.09660   0.18710   0.50710   0.00000  Uiso   1.00
H72    H     0.01850   0.29460   0.52170   0.00000  Uiso   1.00
C73    C     0.08910   0.18470   0.61100   0.00000  Uiso   1.00
H74    H     0.04770   0.10440   0.60090   0.00000  Uiso   1.00
H75    H     0.05580   0.24110   0.63870   0.00000  Uiso   1.00
C76    C     0.23390   0.01350   0.64650   0.00000  Uiso   1.00
H77    H     0.17320   0.95750   0.64640   0.00000  Uiso   1.00
H78    H     0.29440   0.98880   0.68680   0.00000  Uiso   1.00
C79    C     0.41320   0.41590   0.73460   0.00000  Uiso   1.00
H80    H     0.41450   0.45590   0.77990   0.00000  Uiso   1.00
H81    H     0.44770   0.47500   0.70890   0.00000  Uiso   1.00
C82    C     0.20390   0.38460   0.48770   0.00000  Uiso   1.00
H83    H     0.15500   0.45200   0.46240   0.00000  Uiso   1.00
H84    H     0.19520   0.30860   0.45690   0.00000  Uiso   1.00
N85    N     0.20440   0.15420   0.65392   0.00000  Uiso   1.00
N86    N     0.29930   0.39040   0.69162   0.00000  Uiso   1.00
N87    N     0.17700   0.34960   0.55499   0.00000  Uiso   1.00
O88    O     0.30050   0.13110   0.54675   0.00000  Uiso   1.00
O89    O     0.35320   0.89110   0.57124   0.00000  Uiso   1.00
O90    O     0.16360   0.95550   0.50366   0.00000  Uiso   1.00
H91    H     0.16830   0.88010   0.49060   0.00000  Uiso   1.00
O92    O     0.42860   0.18420   0.68274   0.00000  Uiso   1.00
O93    O     0.48320   0.19750   0.81857   0.00000  Uiso   1.00
O94    O     0.60570   0.28940   0.75412   0.00000  Uiso   1.00
H95    H     0.60860   0.32470   0.71700   0.00000  Uiso   1.00
O96    O     0.39460   0.37140   0.58025   0.00000  Uiso   1.00
O97    O     0.38900   0.40140   0.44950   0.00000  Uiso   1.00
O98    O     0.34340   0.59000   0.51917   0.00000  Uiso   1.00
O99    O     0.38910   0.41290   0.92061   0.00000  Uiso   1.00
H100   H     0.40070   0.49460   0.92040   0.00000  Uiso   1.00
H101   H     0.35720   0.39330   0.95180   0.00000  Uiso   1.00
O102   O     0.55650   0.31490   0.06393   0.00000  Uiso   1.00
H103   H     0.49520   0.31200   0.07210   0.00000  Uiso   1.00
H104   H     0.60020   0.25980   0.08930   0.00000  Uiso   1.00
Co105  Co    0.30228   0.23664   0.11827   0.00000  Uiso   1.00
Ca106  Ca    0.52106   0.25804   0.43813   0.00000  Uiso   1.00
P107   P     0.26970   0.50720   0.06358   0.00000  Uiso   1.00
P108   P     0.48509   0.23921   0.25001   0.00000  Uiso   1.00
P109   P     0.34291   0.05699   0.00904   0.00000  Uiso   1.00
C110   C     0.22330   0.31010   0.23070   0.00000  Uiso   1.00
H111   H     0.28930   0.35050   0.25950   0.00000  Uiso   1.00
H112   H     0.16380   0.34100   0.24760   0.00000  Uiso   1.00
C113   C     0.23200   0.16350   0.23770   0.00000  Uiso   1.00
H114   H     0.26540   0.14020   0.28740   0.00000  Uiso   1.00
H115   H     0.16040   0.12510   0.22300   0.00000  Uiso   1.00
C116   C     0.24770   0.98950   0.15280   0.00000  Uiso   1.00
H117   H     0.29870   0.94330   0.13340   0.00000  Uiso   1.00
H118   H     0.22540   0.93150   0.18530   0.00000  Uiso   1.00
C119   C     0.15010   0.03150   0.09250   0.00000  Uiso   1.00
H120   H     0.09040   0.05140   0.11190   0.00000  Uiso   1.00
H121   H     0.12790   0.96060   0.05850   0.00000  Uiso   1.00
C122   C     0.08750   0.24860   0.04140   0.00000  Uiso   1.00
H123   H     0.09660   0.31290   0.00710   0.00000  Uiso   1.00
H124   H     0.01850   0.20540   0.02170   0.00000  Uiso   1.00
C125   C     0.08910   0.31530   0.11100   0.00000  Uiso   1.00
H126   H     0.04770   0.39560   0.10090   0.00000  Uiso   1.00
H127   H     0.05580   0.25890   0.13870   0.00000  Uiso   1.00
C128   C     0.23390   0.48650   0.14650   0.00000  Uiso   1.00
H129   H     0.17320   0.54250   0.14640   0.00000  Uiso   1.00
H130   H     0.29440   0.51120   0.18680   0.00000  Uiso   1.00
C131   C     0.41320   0.08410   0.23460   0.00000  Uiso   1.00
H132   H     0.41450   0.04410   0.27990   0.00000  Uiso   1.00
H133   H     0.44770   0.02500   0.20890   0.00000  Uiso   1.00
C134   C     0.20390   0.11540   0.98770   0.00000  Uiso   1.00
H135   H     0.15500   0.04800   0.96240   0.00000  Uiso   1.00
H136   H     0.19520   0.19140   0.95690   0.00000  Uiso   1.00
N137   N     0.20440   0.34580   0.15392   0.00000  Uiso   1.00
N138   N     0.29930   0.10960   0.19162   0.00000  Uiso   1.00
N139   N     0.17700   0.15040   0.05499   0.00000  Uiso   1.00
O140   O     0.30050   0.36890   0.04675   0.00000  Uiso   1.00
O141   O     0.35320   0.60890   0.07124   0.00000  Uiso   1.00
O142   O     0.16360   0.54450   0.00366   0.00000  Uiso   1.00
H143   H     0.16830   0.61990   0.99060   0.00000  Uiso   1.00
O144   O     0.42860   0.31580   0.18274   0.00000  Uiso   1.00
O145   O     0.48320   0.30250   0.31857   0.00000  Uiso   1.00
O146   O     0.60570   0.21060   0.25412   0.00000  Uiso   1.00
H147   H     0.60860   0.17530   0.21700   0.00000  Uiso   1.00
O148   O     0.39460   0.12860   0.08025   0.00000  Uiso   1.00
O149   O     0.38900   0.09860   0.94950   0.00000  Uiso   1.00
O150   O     0.34340   0.91000   0.01917   0.00000  Uiso   1.00
O151   O     0.38910   0.08710   0.42061   0.00000  Uiso   1.00
H152   H     0.40070   0.00540   0.42040   0.00000  Uiso   1.00
H153   H     0.35720   0.10670   0.45180   0.00000  Uiso   1.00
O154   O     0.55650   0.18510   0.56393   0.00000  Uiso   1.00
H155   H     0.49520   0.18800   0.57210   0.00000  Uiso   1.00
H156   H     0.60020   0.24020   0.58930   0.00000  Uiso   1.00
Co157  Co    0.69772   0.73664   0.38173   0.00000  Uiso   1.00
Ca158  Ca    0.47894   0.75804   0.06187   0.00000  Uiso   1.00
P159   P     0.73030   0.00720   0.43642   0.00000  Uiso   1.00
P160   P     0.51491   0.73921   0.24999   0.00000  Uiso   1.00
P161   P     0.65709   0.55699   0.49096   0.00000  Uiso   1.00
C162   C     0.77670   0.81010   0.26930   0.00000  Uiso   1.00
H163   H     0.71070   0.85050   0.24050   0.00000  Uiso   1.00
H164   H     0.83620   0.84100   0.25240   0.00000  Uiso   1.00
C165   C     0.76800   0.66350   0.26230   0.00000  Uiso   1.00
H166   H     0.73460   0.64020   0.21260   0.00000  Uiso   1.00
H167   H     0.83960   0.62510   0.27700   0.00000  Uiso   1.00
C168   C     0.75230   0.48950   0.34720   0.00000  Uiso   1.00
H169   H     0.70130   0.44330   0.36660   0.00000  Uiso   1.00
H170   H     0.77460   0.43150   0.31470   0.00000  Uiso   1.00
C171   C     0.84990   0.53150   0.40750   0.00000  Uiso   1.00
H172   H     0.90960   0.55140   0.38810   0.00000  Uiso   1.00
H173   H     0.87210   0.46060   0.44150   0.00000  Uiso   1.00
C174   C     0.91250   0.74860   0.45860   0.00000  Uiso   1.00
H175   H     0.90340   0.81290   0.49290   0.00000  Uiso   1.00
H176   H     0.98150   0.70540   0.47830   0.00000  Uiso   1.00
C177   C     0.91090   0.81530   0.38900   0.00000  Uiso   1.00
H178   H     0.95230   0.89560   0.39910   0.00000  Uiso   1.00
H179   H     0.94420   0.75890   0.36130   0.00000  Uiso   1.00
C180   C     0.76610   0.98650   0.35350   0.00000  Uiso   1.00
H181   H     0.82680   0.04250   0.35360   0.00000  Uiso   1.00
H182   H     0.70560   0.01120   0.31320   0.00000  Uiso   1.00
C183   C     0.58680   0.58410   0.26540   0.00000  Uiso   1.00
H184   H     0.58550   0.54410   0.22010   0.00000  Uiso   1.00
H185   H     0.55230   0.52500   0.29110   0.00000  Uiso   1.00
C186   C     0.79610   0.61540   0.51230   0.00000  Uiso   1.00
H187   H     0.84500   0.54800   0.53760   0.00000  Uiso   1.00
H188   H     0.80480   0.69140   0.54310   0.00000  Uiso   1.00
N189   N     0.79560   0.84580   0.34608   0.00000  Uiso   1.00
N190   N     0.70070   0.60960   0.30838   0.00000  Uiso   1.00
N191   N     0.82300   0.65040   0.44501   0.00000  Uiso   1.00
O192   O     0.69950   0.86890   0.45325   0.00000  Uiso   1.00
O193   O     0.64680   0.10890   0.42876   0.00000  Uiso   1.00
O194   O     0.83640   0.04450   0.49634   0.00000  Uiso   1.00
H195   H     0.83170   0.11990   0.50940   0.00000  Uiso   1.00
O196   O     0.57140   0.81580   0.31726   0.00000  Uiso   1.00
O197   O     0.51680   0.80250   0.18143   0.00000  Uiso   1.00
O198   O     0.39430   0.71060   0.24588   0.00000  Uiso   1.00
H199   H     0.39140   0.67530   0.28300   0.00000  Uiso   1.00
O200   O     0.60540   0.62860   0.41975   0.00000  Uiso   1.00
O201   O     0.61100   0.59860   0.55050   0.00000  Uiso   1.00
O202   O     0.65660   0.41000   0.48083   0.00000  Uiso   1.00
O203   O     0.61090   0.58710   0.07939   0.00000  Uiso   1.00
H204   H     0.59930   0.50540   0.07960   0.00000  Uiso   1.00
H205   H     0.64280   0.60670   0.04820   0.00000  Uiso   1.00
O206   O     0.44350   0.68510   0.93607   0.00000  Uiso   1.00
H207   H     0.50480   0.68800   0.92790   0.00000  Uiso   1.00
H208   H     0.39980   0.74020   0.91070   0.00000  Uiso   1.00
loop_
_geom_bond_atom_site_label_1
_geom_bond_atom_site_label_2
_geom_bond_distance
_geom_bond_site_symmetry_2
_ccdc_geom_bond_type
Co1    N33     1.956   .     S
Co1    N34     1.941   .     S
Co1    N35     1.944   .     S
Co1    O36     1.938   .     S
Co1    O40     1.931   .     S
Co1    O44     1.922   .     S
Ca2    O41     2.286   .     S
Ca2    O47     2.398   .     S
Ca2    O50     2.477   .     S
Ca2    O89     2.273   .     S
Ca2    O201    2.307   .     S
Ca2    O98     2.312   .     S
P3     C24     1.815   .     S
P3     O37     1.475   .     S
P3     O38     1.573   .     S
P3     O36     1.531   .     S
P4     C27     1.821   .     S
P4     O41     1.491   .     S
P4     O42     1.564   .     S
P4     O40     1.523   .     S
P5     C30     1.824   1_556 S
P5     O45     1.508   1_556 S
P5     O46     1.518   1_565 S
P5     O44     1.543   .     S
C6     H7      0.969   .     S
C6     H8      0.971   .     S
C6     C9      1.508   .     S
C6     N33     1.491   .     S
C9     H10     0.971   .     S
C9     H11     0.970   .     S
C9     N34     1.520   .     S
C12    H13     0.970   .     S
C12    H14     0.970   .     S
C12    C15     1.520   1_545 S
C12    N34     1.497   1_545 S
C15    C12     1.520   1_565 S
C15    H16     0.972   .     S
C15    H17     0.969   1_565 S
C15    N35     1.510   .     S
H17    C15     0.969   1_545 S
C18    H19     0.969   .     S
C18    H20     0.970   .     S
C18    C21     1.513   .     S
C18    N35     1.497   .     S
C21    H22     0.970   .     S
C21    H23     0.970   .     S
C21    N33     1.518   .     S
C24    H25     0.970   .     S
C24    H26     0.970   .     S
C24    N33     1.507   .     S
C27    H28     0.969   .     S
C27    H29     0.971   .     S
C27    N34     1.494   .     S
C30    P5      1.824   1_554 S
C30    H31     0.970   .     S
C30    H32     0.969   .     S
C30    N35     1.492   1_554 S
N34    C12     1.497   1_565 S
N35    C30     1.492   1_556 S
O37    Ca54    2.273   .     S
O38    H39     0.820   1_556 S
H39    O38     0.820   1_554 S
O42    H43     0.819   .     S
O45    P5      1.508   1_554 S
O45    Ca158   2.307   .     S
O46    P5      1.518   1_545 S
O46    Ca54    2.312   .     S
O47    H48     0.850   .     S
O47    H49     0.849   .     S
O50    H51     0.851   .     S
O50    H52     0.850   .     S
Co53   N85     1.956   .     S
Co53   N86     1.941   .     S
Co53   N87     1.944   .     S
Co53   O88     1.938   .     S
Co53   O92     1.931   .     S
Co53   O96     1.922   .     S
Ca54   O93     2.286   .     S
Ca54   O99     2.398   .     S
Ca54   O102    2.477   1_556 S
Ca54   O149    2.307   .     S
P55    C76     1.815   1_565 S
P55    O89     1.475   .     S
P55    O90     1.573   .     S
P55    O88     1.531   1_565 S
P56    C79     1.821   .     S
P56    O93     1.491   .     S
P56    O94     1.564   .     S
P56    O92     1.523   .     S
P57    C82     1.824   .     S
P57    O97     1.508   .     S
P57    O98     1.518   .     S
P57    O96     1.543   .     S
C58    H59     0.969   .     S
C58    H60     0.971   .     S
C58    C61     1.508   .     S
C58    N85     1.491   .     S
C61    H62     0.971   .     S
C61    H63     0.970   .     S
C61    N86     1.520   .     S
C64    H65     0.970   .     S
C64    H66     0.970   .     S
C64    C67     1.520   .     S
C64    N86     1.497   .     S
C67    H68     0.972   .     S
C67    H69     0.969   .     S
C67    N87     1.510   .     S
C70    H71     0.969   .     S
C70    H72     0.970   .     S
C70    C73     1.513   .     S
C70    N87     1.497   .     S
C73    H74     0.970   .     S
C73    H75     0.970   .     S
C73    N85     1.518   .     S
C76    P55     1.815   1_545 S
C76    H77     0.970   1_545 S
C76    H78     0.970   1_545 S
C76    N85     1.507   .     S
H77    C76     0.970   1_565 S
H78    C76     0.970   1_565 S
C79    H80     0.969   .     S
C79    H81     0.971   .     S
C79    N86     1.494   .     S
C82    H83     0.970   .     S
C82    H84     0.969   .     S
C82    N87     1.492   .     S
O88    P55     1.531   1_545 S
O90    H91     0.820   .     S
O94    H95     0.819   .     S
O97    Ca106   2.307   .     S
O99    H100    0.850   .     S
O99    H101    0.849   .     S
O102   Ca54    2.477   1_554 S
O102   H103    0.851   .     S
O102   H104    0.850   .     S
Co105  N137    1.956   .     S
Co105  N138    1.941   .     S
Co105  N139    1.944   .     S
Co105  O140    1.938   .     S
Co105  O144    1.931   .     S
Co105  O148    1.922   .     S
Ca106  O145    2.286   .     S
Ca106  O151    2.398   .     S
Ca106  O154    2.477   .     S
Ca106  O193    2.273   .     S
Ca106  O202    2.312   .     S
P107   C128    1.815   .     S
P107   O141    1.475   .     S
P107   O142    1.573   .     S
P107   O140    1.531   .     S
P108   C131    1.821   .     S
P108   O145    1.491   .     S
P108   O146    1.564   .     S
P108   O144    1.523   .     S
P109   C134    1.824   1_554 S
P109   O149    1.508   1_554 S
P109   O150    1.518   1_545 S
P109   O148    1.543   .     S
C110   H111    0.969   .     S
C110   H112    0.971   .     S
C110   C113    1.508   .     S
C110   N137    1.491   .     S
C113   H114    0.971   .     S
C113   H115    0.970   .     S
C113   N138    1.520   .     S
C116   H117    0.970   .     S
C116   H118    0.970   .     S
C116   C119    1.520   1_565 S
C116   N138    1.497   1_565 S
C119   C116    1.520   1_545 S
C119   H120    0.972   .     S
C119   H121    0.969   1_545 S
C119   N139    1.510   .     S
H121   C119    0.969   1_565 S
C122   H123    0.969   .     S
C122   H124    0.970   .     S
C122   C125    1.513   .     S
C122   N139    1.497   .     S
C125   H126    0.970   .     S
C125   H127    0.970   .     S
C125   N137    1.518   .     S
C128   H129    0.970   .     S
C128   H130    0.970   .     S
C128   N137    1.507   .     S
C131   H132    0.969   .     S
C131   H133    0.971   .     S
C131   N138    1.494   .     S
C134   P109    1.824   1_556 S
C134   H135    0.970   .     S
C134   H136    0.969   .     S
C134   N139    1.492   1_556 S
N138   C116    1.497   1_545 S
N139   C134    1.492   1_554 S
O141   Ca158   2.273   .     S
O142   H143    0.820   1_554 S
H143   O142    0.820   1_556 S
O146   H147    0.819   .     S
O149   P109    1.508   1_556 S
O150   P109    1.518   1_565 S
O150   Ca158   2.312   .     S
O151   H152    0.850   .     S
O151   H153    0.849   .     S
O154   H155    0.851   .     S
O154   H156    0.850   .     S
Co157  N189    1.956   .     S
Co157  N190    1.941   .     S
Co157  N191    1.944   .     S
Co157  O192    1.938   .     S
Co157  O196    1.931   .     S
Co157  O200    1.922   .     S
Ca158  O197    2.286   .     S
Ca158  O203    2.398   .     S
Ca158  O206    2.477   1_554 S
P159   C180    1.815   1_545 S
P159   O193    1.475   .     S
P159   O194    1.573   .     S
P159   O192    1.531   1_545 S
P160   C183    1.821   .     S
P160   O197    1.491   .     S
P160   O198    1.564   .     S
P160   O196    1.523   .     S
P161   C186    1.824   .     S
P161   O201    1.508   .     S
P161   O202    1.518   .     S
P161   O200    1.543   .     S
C162   H163    0.969   .     S
C162   H164    0.971   .     S
C162   C165    1.508   .     S
C162   N189    1.491   .     S
C165   H166    0.971   .     S
C165   H167    0.970   .     S
C165   N190    1.520   .     S
C168   H169    0.970   .     S
C168   H170    0.970   .     S
C168   C171    1.520   .     S
C168   N190    1.497   .     S
C171   H172    0.972   .     S
C171   H173    0.969   .     S
C171   N191    1.510   .     S
C174   H175    0.969   .     S
C174   H176    0.970   .     S
C174   C177    1.513   .     S
C174   N191    1.497   .     S
C177   H178    0.970   .     S
C177   H179    0.970   .     S
C177   N189    1.518   .     S
C180   P159    1.815   1_565 S
C180   H181    0.970   1_565 S
C180   H182    0.970   1_565 S
C180   N189    1.507   .     S
H181   C180    0.970   1_545 S
H182   C180    0.970   1_545 S
C183   H184    0.969   .     S
C183   H185    0.971   .     S
C183   N190    1.494   .     S
C186   H187    0.970   .     S
C186   H188    0.969   .     S
C186   N191    1.492   .     S
O192   P159    1.531   1_565 S
O194   H195    0.820   .     S
O198   H199    0.819   .     S
O203   H204    0.850   .     S
O203   H205    0.849   .     S
O206   Ca158   2.477   1_556 S
O206   H207    0.851   .     S
O206   H208    0.850   .     S
