data_EGIPUI_FSR
_audit_creation_date              2024-06-11
_audit_creation_method            'Materials Studio'
_symmetry_space_group_name_H-M    'P1'
_symmetry_Int_Tables_number       1
_symmetry_cell_setting            triclinic
loop_
_symmetry_equiv_pos_as_xyz
  x,y,z
_cell_length_a                    8.6642
_cell_length_b                    9.7845
_cell_length_c                    9.9709
_cell_angle_alpha                 93.4220
_cell_angle_beta                  98.8110
_cell_angle_gamma                 105.9860
loop_
_atom_site_label
_atom_site_type_symbol
_atom_site_fract_x
_atom_site_fract_y
_atom_site_fract_z
_atom_site_U_iso_or_equiv
_atom_site_adp_type
_atom_site_occupancy
Sr1    Sr    0.55116   0.97469   0.30215   0.00000  Uiso   1.00
O2     O     0.42645   0.13329   0.15928   0.00000  Uiso   1.00
O3     O     0.35620   0.32327   0.10255   0.00000  Uiso   1.00
H4     H     0.38030   0.41110   0.13230   0.00000  Uiso   1.00
O5     O     0.42240   0.57417   0.18246   0.00000  Uiso   1.00
O6     O     0.57870   0.72790   0.35511   0.00000  Uiso   1.00
O7     O     0.85889   0.07499   0.42856   0.00000  Uiso   1.00
O8     O     0.67589   0.03479   0.56354   0.00000  Uiso   1.00
O9     O     0.33520   0.81054   0.11109   0.00000  Uiso   1.00
H10    H     0.34390   0.72670   0.11860   0.00000  Uiso   1.00
H11    H     0.28800   0.83890   0.04170   0.00000  Uiso   1.00
O12    O     0.71350   0.97540   0.11453   0.00000  Uiso   1.00
H13    H     0.67880   0.93920   0.03210   0.00000  Uiso   1.00
H14    H     0.80920   0.02950   0.11580   0.00000  Uiso   1.00
N15    N     0.64601   0.28374   0.38963   0.00000  Uiso   1.00
N16    N     0.70356   0.51379   0.46218   0.00000  Uiso   1.00
H17    H     0.74940   0.59690   0.51350   0.00000  Uiso   1.00
C18    C     0.44010   0.26183   0.18246   0.00000  Uiso   1.00
C19    C     0.52760   0.60738   0.29320   0.00000  Uiso   1.00
C20    C     0.55360   0.34658   0.30346   0.00000  Uiso   1.00
C21    C     0.58840   0.49026   0.34739   0.00000  Uiso   1.00
C22    C     0.73690   0.38812   0.48493   0.00000  Uiso   1.00
C23    C     0.85920   0.37594   0.60005   0.00000  Uiso   1.00
C24    C     0.94370   0.49570   0.69300   0.00000  Uiso   1.00
H25    H     0.91960   0.58190   0.68290   0.00000  Uiso   1.00
C26    C     1.06230   0.48800   0.79950   0.00000  Uiso   1.00
H27    H     1.11650   0.56860   0.86070   0.00000  Uiso   1.00
C28    C     1.10110   0.36170   0.81580   0.00000  Uiso   1.00
H29    H     1.18240   0.35740   0.88670   0.00000  Uiso   1.00
C30    C     1.01820   0.24140   0.72580   0.00000  Uiso   1.00
H31    H     1.04420   0.15610   0.73650   0.00000  Uiso   1.00
C32    C     0.89610   0.24707   0.61948   0.00000  Uiso   1.00
C33    C     0.80560   0.11034   0.53070   0.00000  Uiso   1.00
Sr34   Sr    0.44884   0.02531   0.69785   0.00000  Uiso   1.00
O35    O     0.57355   0.86671   0.84072   0.00000  Uiso   1.00
O36    O     0.64380   0.67673   0.89745   0.00000  Uiso   1.00
H37    H     0.61970   0.58890   0.86770   0.00000  Uiso   1.00
O38    O     0.57760   0.42583   0.81754   0.00000  Uiso   1.00
O39    O     0.42130   0.27210   0.64489   0.00000  Uiso   1.00
O40    O     0.14111   0.92501   0.57144   0.00000  Uiso   1.00
O41    O     0.32411   0.96521   0.43646   0.00000  Uiso   1.00
O42    O     0.66480   0.18946   0.88891   0.00000  Uiso   1.00
H43    H     0.65610   0.27330   0.88140   0.00000  Uiso   1.00
H44    H     0.71200   0.16110   0.95830   0.00000  Uiso   1.00
O45    O     0.28650   0.02460   0.88547   0.00000  Uiso   1.00
H46    H     0.32120   0.06080   0.96790   0.00000  Uiso   1.00
H47    H     0.19080   0.97050   0.88420   0.00000  Uiso   1.00
N48    N     0.35399   0.71626   0.61037   0.00000  Uiso   1.00
N49    N     0.29644   0.48621   0.53782   0.00000  Uiso   1.00
H50    H     0.25060   0.40310   0.48650   0.00000  Uiso   1.00
C51    C     0.55990   0.73817   0.81754   0.00000  Uiso   1.00
C52    C     0.47240   0.39262   0.70680   0.00000  Uiso   1.00
C53    C     0.44640   0.65342   0.69654   0.00000  Uiso   1.00
C54    C     0.41160   0.50974   0.65261   0.00000  Uiso   1.00
C55    C     0.26310   0.61188   0.51507   0.00000  Uiso   1.00
C56    C     0.14080   0.62406   0.39995   0.00000  Uiso   1.00
C57    C     0.05630   0.50430   0.30700   0.00000  Uiso   1.00
H58    H     0.08040   0.41810   0.31710   0.00000  Uiso   1.00
C59    C    -0.06230   0.51200   0.20050   0.00000  Uiso   1.00
H60    H    -0.11650   0.43140   0.13930   0.00000  Uiso   1.00
C61    C    -0.10110   0.63830   0.18420   0.00000  Uiso   1.00
H62    H    -0.18240   0.64260   0.11330   0.00000  Uiso   1.00
C63    C    -0.01820   0.75860   0.27420   0.00000  Uiso   1.00
H64    H    -0.04420   0.84390   0.26350   0.00000  Uiso   1.00
C65    C     0.10390   0.75293   0.38052   0.00000  Uiso   1.00
C66    C     0.19440   0.88966   0.46930   0.00000  Uiso   1.00
loop_
_geom_bond_atom_site_label_1
_geom_bond_atom_site_label_2
_geom_bond_distance
_geom_bond_site_symmetry_2
_ccdc_geom_bond_type
Sr1    O2      2.514   1_565 S
Sr1    O7      2.654   1_565 S
Sr1    O8      2.629   1_565 S
Sr1    O9      2.569   .     S
Sr1    O12     2.506   .     S
Sr1    N15     2.946   1_565 S
Sr1    O6      2.569   .     S
Sr1    O41     2.529   .     S
O2     Sr1     2.514   1_545 S
O2     C18     1.235   .     S
O3     H4      0.850   .     S
O3     C18     1.283   .     S
O5     C19     1.281   .     S
O6     C19     1.229   .     S
O7     Sr1     2.654   1_545 S
O7     C33     1.249   .     S
O8     Sr1     2.629   1_545 S
O8     Sr34    2.529   .     S
O8     C33     1.265   .     S
O9     H10     0.851   .     S
O9     H11     0.850   .     S
O12    H13     0.850   .     S
O12    H14     0.850   1_565 S
H14    O12     0.850   1_545 S
N15    Sr1     2.946   1_545 S
N15    C20     1.371   .     S
N15    C22     1.333   .     S
N16    H17     0.889   .     S
N16    C21     1.360   .     S
N16    C22     1.362   .     S
C18    C20     1.476   .     S
C19    C21     1.484   .     S
C20    C21     1.383   .     S
C22    C23     1.472   .     S
C23    C24     1.399   .     S
C23    C32     1.401   .     S
C24    H25     0.930   .     S
C24    C26     1.381   .     S
C26    H27     0.930   .     S
C26    C28     1.379   .     S
C28    H29     0.930   .     S
C28    C30     1.385   .     S
C30    H31     0.930   .     S
C30    C32     1.393   .     S
C32    C33     1.502   .     S
Sr34   O35     2.514   1_545 S
Sr34   O40     2.654   1_545 S
Sr34   O41     2.629   1_545 S
Sr34   O42     2.569   .     S
Sr34   O45     2.506   .     S
Sr34   N48     2.946   1_545 S
Sr34   O39     2.569   .     S
O35    Sr34    2.514   1_565 S
O35    C51     1.235   .     S
O36    H37     0.850   .     S
O36    C51     1.283   .     S
O38    C52     1.281   .     S
O39    C52     1.229   .     S
O40    Sr34    2.654   1_565 S
O40    C66     1.249   .     S
O41    Sr34    2.629   1_565 S
O41    C66     1.265   .     S
O42    H43     0.851   .     S
O42    H44     0.850   .     S
O45    H46     0.850   .     S
O45    H47     0.850   1_545 S
H47    O45     0.850   1_565 S
N48    Sr34    2.946   1_565 S
N48    C53     1.371   .     S
N48    C55     1.333   .     S
N49    H50     0.889   .     S
N49    C54     1.360   .     S
N49    C55     1.362   .     S
C51    C53     1.476   .     S
C52    C54     1.484   .     S
C53    C54     1.383   .     S
C55    C56     1.472   .     S
C56    C57     1.399   .     S
C56    C65     1.401   .     S
C57    H58     0.930   .     S
C57    C59     1.381   .     S
C59    H60     0.930   .     S
C59    C61     1.379   .     S
C61    H62     0.930   .     S
C61    C63     1.385   .     S
C63    H64     0.930   .     S
C63    C65     1.393   .     S
C65    C66     1.502   .     S
