data_EWUYIG_FSR
_audit_creation_date              2024-06-11
_audit_creation_method            'Materials Studio'
_symmetry_space_group_name_H-M    'P1'
_symmetry_Int_Tables_number       1
_symmetry_cell_setting            triclinic
loop_
_symmetry_equiv_pos_as_xyz
  x,y,z
_cell_length_a                    9.4238
_cell_length_b                    16.1699
_cell_length_c                    7.5876
_cell_angle_alpha                 90.0000
_cell_angle_beta                  107.4130
_cell_angle_gamma                 90.0000
loop_
_atom_site_label
_atom_site_type_symbol
_atom_site_fract_x
_atom_site_fract_y
_atom_site_fract_z
_atom_site_U_iso_or_equiv
_atom_site_adp_type
_atom_site_occupancy
O1     O     0.07164   0.24682  -0.15899   0.00000  Uiso   1.00
O2     O     0.96348   0.43117   0.15919   0.00000  Uiso   1.00
C3     C     0.20710   0.22885  -0.09350   0.00000  Uiso   1.00
O4     O     0.27784   0.18053  -0.16300   0.00000  Uiso   1.00
O5     O     0.57164   0.74682  -0.15899   0.00000  Uiso   1.00
O6     O     0.46348   0.93117   0.15919   0.00000  Uiso   1.00
C7     C     0.70710   0.72885  -0.09350   0.00000  Uiso   1.00
O8     O     0.77784   0.68053  -0.16300   0.00000  Uiso   1.00
O9     O     0.92836   0.24682   0.15899   0.00000  Uiso   1.00
O10    O     0.03652   0.43117  -0.15919   0.00000  Uiso   1.00
C11    C     0.79290   0.22885   0.09350   0.00000  Uiso   1.00
O12    O     0.72216   0.18053   0.16300   0.00000  Uiso   1.00
O13    O     0.42836   0.74682   0.15899   0.00000  Uiso   1.00
O14    O     0.53652   0.93117  -0.15919   0.00000  Uiso   1.00
C15    C     0.29290   0.72885   0.09350   0.00000  Uiso   1.00
O16    O     0.22216   0.68053   0.16300   0.00000  Uiso   1.00
O17    O     0.92836   0.75318   0.15899   0.00000  Uiso   1.00
O18    O     0.03652   0.56883  -0.15919   0.00000  Uiso   1.00
C19    C     0.79290   0.77115   0.09350   0.00000  Uiso   1.00
O20    O     0.72216   0.81947   0.16300   0.00000  Uiso   1.00
O21    O     0.42836   0.25318   0.15899   0.00000  Uiso   1.00
O22    O     0.53652   0.06883  -0.15919   0.00000  Uiso   1.00
C23    C     0.29290   0.27115   0.09350   0.00000  Uiso   1.00
O24    O     0.22216   0.31947   0.16300   0.00000  Uiso   1.00
O25    O     0.07164   0.75318  -0.15899   0.00000  Uiso   1.00
O26    O     0.96348   0.56883   0.15919   0.00000  Uiso   1.00
C27    C     0.20710   0.77115  -0.09350   0.00000  Uiso   1.00
O28    O     0.27784   0.81947  -0.16300   0.00000  Uiso   1.00
O29    O     0.57164   0.25318  -0.15899   0.00000  Uiso   1.00
O30    O     0.46348   0.06883   0.15919   0.00000  Uiso   1.00
C31    C     0.70710   0.27115  -0.09350   0.00000  Uiso   1.00
O32    O     0.77784   0.31947  -0.16300   0.00000  Uiso   1.00
Zn33   Zn    0.00000   0.33387   0.00000   0.00000  Uiso   1.00
Zn34   Zn    0.50000   0.83387  -0.00000   0.00000  Uiso   1.00
Zn35   Zn    0.00000   0.66613   0.00000   0.00000  Uiso   1.00
Zn36   Zn    0.50000   0.16613  -0.00000   0.00000  Uiso   1.00
C37    C     0.97840   0.50000   0.09190   0.00000  Uiso   1.00
C38    C     0.47840   0.00000   0.09190   0.00000  Uiso   1.00
C39    C     0.02160   0.50000  -0.09190   0.00000  Uiso   1.00
C40    C     0.52160   0.00000  -0.09190   0.00000  Uiso   1.00
loop_
_geom_bond_atom_site_label_1
_geom_bond_atom_site_label_2
_geom_bond_distance
_geom_bond_site_symmetry_2
_ccdc_geom_bond_type
O1     Zn33    2.093   .     S
O1     C3      1.257   .     S
O2     Zn33    2.074   1_655 S
O2     C37     1.250   .     S
C3     O4      1.242   .     S
C3     C23     1.565   .     S
O4     Zn36    2.102   .     S
O5     Zn34    2.093   .     S
O5     C7      1.257   .     S
O6     Zn34    2.074   .     S
O6     C38     1.250   1_565 S
C7     O8      1.242   .     S
C7     C19     1.565   .     S
O8     Zn35    2.102   1_655 S
O9     Zn33    2.093   1_655 S
O9     C11     1.257   .     S
O10    Zn33    2.074   .     S
O10    C39     1.250   .     S
C11    O12     1.242   .     S
C11    C31     1.565   .     S
O12    Zn36    2.102   .     S
O13    Zn34    2.093   .     S
O13    C15     1.257   .     S
O14    Zn34    2.074   .     S
O14    C40     1.250   1_565 S
C15    O16     1.242   .     S
C15    C27     1.565   .     S
O16    Zn35    2.102   .     S
O17    Zn35    2.093   1_655 S
O17    C19     1.257   .     S
O18    Zn35    2.074   .     S
O18    C39     1.250   .     S
C19    O20     1.242   .     S
O20    Zn34    2.102   .     S
O21    Zn36    2.093   .     S
O21    C23     1.257   .     S
O22    Zn36    2.074   .     S
O22    C40     1.250   .     S
C23    O24     1.242   .     S
O24    Zn33    2.102   .     S
O25    Zn35    2.093   .     S
O25    C27     1.257   .     S
O26    Zn35    2.074   1_655 S
O26    C37     1.250   .     S
C27    O28     1.242   .     S
O28    Zn34    2.102   .     S
O29    Zn36    2.093   .     S
O29    C31     1.257   .     S
O30    Zn36    2.074   .     S
O30    C38     1.250   .     S
C31    O32     1.242   .     S
O32    Zn33    2.102   1_655 S
Zn33   O9      2.093   1_455 S
Zn33   O2      2.074   1_455 S
Zn33   O32     2.102   1_455 S
Zn35   O17     2.093   1_455 S
Zn35   O26     2.074   1_455 S
Zn35   O8      2.102   1_455 S
C37    C39     1.565   1_655 S
C38    O6      1.250   1_545 S
C38    C40     1.565   .     S
C39    C37     1.565   1_455 S
C40    O14     1.250   1_545 S
