data_FATKES_FSR
_audit_creation_date              2024-06-11
_audit_creation_method            'Materials Studio'
_symmetry_space_group_name_H-M    'P1'
_symmetry_Int_Tables_number       1
_symmetry_cell_setting            triclinic
loop_
_symmetry_equiv_pos_as_xyz
  x,y,z
_cell_length_a                    10.3246
_cell_length_b                    11.3359
_cell_length_c                    22.3160
_cell_angle_alpha                 90.0000
_cell_angle_beta                  97.2900
_cell_angle_gamma                 90.0000
loop_
_atom_site_label
_atom_site_type_symbol
_atom_site_fract_x
_atom_site_fract_y
_atom_site_fract_z
_atom_site_U_iso_or_equiv
_atom_site_adp_type
_atom_site_occupancy
Nd1    Nd    0.10910   0.69037   0.22543   0.00000  Uiso   1.00
Nd2    Nd    0.76161   0.41741   0.06450   0.00000  Uiso   1.00
O3     O     0.09990   0.67890   0.11544   0.00000  Uiso   1.00
O4     O     0.18020   0.62520   0.03236   0.00000  Uiso   1.00
O5     O     0.43730   0.63430   0.99877   0.00000  Uiso   1.00
O6     O     0.62450   0.58950   0.05439   0.00000  Uiso   1.00
O7     O     0.23190   0.55860   0.30107   0.00000  Uiso   1.00
O8     O     0.34220   0.39080   0.31572   0.00000  Uiso   1.00
O9     O     0.13170   0.48120   0.19039   0.00000  Uiso   1.00
O10    O     0.23110   0.30860   0.20953   0.00000  Uiso   1.00
O11    O     0.47810   0.26230   0.18215   0.00000  Uiso   1.00
O12    O     0.62490   0.34130   0.13160   0.00000  Uiso   1.00
O13    O     0.81460   0.51880   0.16183   0.00000  Uiso   1.00
O14    O     0.92640   0.56440   0.24969   0.00000  Uiso   1.00
O15    O     0.89350   0.58490   0.03290   0.00000  Uiso   1.00
H16    H     0.95500   0.61200   0.05820   0.00000  Uiso   1.00
H17    H     0.91610   0.55510   0.00090   0.00000  Uiso   1.00
O18    O     0.98960   0.36220   0.09770   0.00000  Uiso   1.00
H19    H     0.04250   0.39620   0.12450   0.00000  Uiso   1.00
H20    H     0.02430   0.29480   0.09460   0.00000  Uiso   1.00
O21    O     0.77790   0.19680   0.06110   0.00000  Uiso   1.00
H22    H     0.84520   0.15700   0.05570   0.00000  Uiso   1.00
H23    H     0.70800   0.16100   0.04740   0.00000  Uiso   1.00
N24    N     0.33710   0.66300   0.18450   0.00000  Uiso   1.00
N25    N     0.53220   0.63250   0.15860   0.00000  Uiso   1.00
H26    H     0.61540   0.62330   0.16170   0.00000  Uiso   1.00
N27    N     0.60950   0.31880   0.29090   0.00000  Uiso   1.00
N28    N     0.77710   0.43650   0.31400   0.00000  Uiso   1.00
H29    H     0.83630   0.47720   0.33530   0.00000  Uiso   1.00
C30    C     0.32620   0.64920   0.12330   0.00000  Uiso   1.00
C31    C     0.44850   0.63000   0.10620   0.00000  Uiso   1.00
C32    C     0.46270   0.65170   0.20470   0.00000  Uiso   1.00
C33    C     0.19500   0.65110   0.08720   0.00000  Uiso   1.00
C34    C     0.50610   0.61620   0.04870   0.00000  Uiso   1.00
C35    C     0.52470   0.66080   0.26910   0.00000  Uiso   1.00
H36    H     0.47940   0.71900   0.28980   0.00000  Uiso   1.00
H37    H     0.61450   0.68340   0.27010   0.00000  Uiso   1.00
H38    H     0.51970   0.58570   0.28860   0.00000  Uiso   1.00
C39    C     0.26440   0.45810   0.28500   0.00000  Uiso   1.00
C40    C     0.20420   0.41210   0.22310   0.00000  Uiso   1.00
C41    C     0.65280   0.35880   0.23840   0.00000  Uiso   1.00
C42    C     0.75800   0.43180   0.25280   0.00000  Uiso   1.00
C43    C     0.68760   0.36650   0.33600   0.00000  Uiso   1.00
C44    C     0.58180   0.31810   0.18040   0.00000  Uiso   1.00
C45    C     0.83930   0.51040   0.21800   0.00000  Uiso   1.00
C46    C     0.67980   0.35290   0.40180   0.00000  Uiso   1.00
H47    H     0.62160   0.41130   0.41440   0.00000  Uiso   1.00
H48    H     0.76510   0.36310   0.42390   0.00000  Uiso   1.00
H49    H     0.64770   0.27560   0.40940   0.00000  Uiso   1.00
Nd50   Nd    0.39090   0.19037   0.27457   0.00000  Uiso   1.00
Nd51   Nd    0.73839   0.91741   0.43550   0.00000  Uiso   1.00
O52    O     0.40010   0.17890   0.38456   0.00000  Uiso   1.00
O53    O     0.31980   0.12520   0.46764   0.00000  Uiso   1.00
O54    O     0.06270   0.13430   0.50123   0.00000  Uiso   1.00
O55    O     0.87550   0.08950   0.44561   0.00000  Uiso   1.00
O56    O     0.26810   0.05860   0.19893   0.00000  Uiso   1.00
O57    O     0.15780   0.89080   0.18428   0.00000  Uiso   1.00
O58    O     0.36830   0.98120   0.30961   0.00000  Uiso   1.00
O59    O     0.26890   0.80860   0.29047   0.00000  Uiso   1.00
O60    O     0.02190   0.76230   0.31785   0.00000  Uiso   1.00
O61    O     0.87510   0.84130   0.36840   0.00000  Uiso   1.00
O62    O     0.68540   0.01880   0.33817   0.00000  Uiso   1.00
O63    O     0.57360   0.06440   0.25031   0.00000  Uiso   1.00
O64    O     0.60650   0.08490   0.46710   0.00000  Uiso   1.00
H65    H     0.54500   0.11200   0.44180   0.00000  Uiso   1.00
H66    H     0.58390   0.05510   0.49910   0.00000  Uiso   1.00
O67    O     0.51040   0.86220   0.40230   0.00000  Uiso   1.00
H68    H     0.45750   0.89620   0.37550   0.00000  Uiso   1.00
H69    H     0.47570   0.79480   0.40540   0.00000  Uiso   1.00
O70    O     0.72210   0.69680   0.43890   0.00000  Uiso   1.00
H71    H     0.65480   0.65700   0.44430   0.00000  Uiso   1.00
H72    H     0.79200   0.66100   0.45260   0.00000  Uiso   1.00
N73    N     0.16290   0.16300   0.31550   0.00000  Uiso   1.00
N74    N     0.96780   0.13250   0.34140   0.00000  Uiso   1.00
H75    H     0.88460   0.12330   0.33830   0.00000  Uiso   1.00
N76    N     0.89050   0.81880   0.20910   0.00000  Uiso   1.00
N77    N     0.72290   0.93650   0.18600   0.00000  Uiso   1.00
H78    H     0.66370   0.97720   0.16470   0.00000  Uiso   1.00
C79    C     0.17380   0.14920   0.37670   0.00000  Uiso   1.00
C80    C     0.05150   0.13000   0.39380   0.00000  Uiso   1.00
C81    C     0.03730   0.15170   0.29530   0.00000  Uiso   1.00
C82    C     0.30500   0.15110   0.41280   0.00000  Uiso   1.00
C83    C     0.99390   0.11620   0.45130   0.00000  Uiso   1.00
C84    C     0.97530   0.16080   0.23090   0.00000  Uiso   1.00
H85    H     0.02060   0.21900   0.21020   0.00000  Uiso   1.00
H86    H     0.88550   0.18340   0.22990   0.00000  Uiso   1.00
H87    H     0.98030   0.08570   0.21140   0.00000  Uiso   1.00
C88    C     0.23560   0.95810   0.21500   0.00000  Uiso   1.00
C89    C     0.29580   0.91210   0.27690   0.00000  Uiso   1.00
C90    C     0.84720   0.85880   0.26160   0.00000  Uiso   1.00
C91    C     0.74200   0.93180   0.24720   0.00000  Uiso   1.00
C92    C     0.81240   0.86650   0.16400   0.00000  Uiso   1.00
C93    C     0.91820   0.81810   0.31960   0.00000  Uiso   1.00
C94    C     0.66070   0.01040   0.28200   0.00000  Uiso   1.00
C95    C     0.82020   0.85290   0.09820   0.00000  Uiso   1.00
H96    H     0.87840   0.91130   0.08560   0.00000  Uiso   1.00
H97    H     0.73490   0.86310   0.07610   0.00000  Uiso   1.00
H98    H     0.85230   0.77560   0.09060   0.00000  Uiso   1.00
Nd99   Nd    0.89090   0.30963   0.77457   0.00000  Uiso   1.00
Nd100  Nd    0.23839   0.58259   0.93550   0.00000  Uiso   1.00
O101   O     0.90010   0.32110   0.88456   0.00000  Uiso   1.00
O102   O     0.81980   0.37480   0.96764   0.00000  Uiso   1.00
O103   O     0.56270   0.36570   0.00123   0.00000  Uiso   1.00
O104   O     0.37550   0.41050   0.94561   0.00000  Uiso   1.00
O105   O     0.76810   0.44140   0.69893   0.00000  Uiso   1.00
O106   O     0.65780   0.60920   0.68428   0.00000  Uiso   1.00
O107   O     0.86830   0.51880   0.80961   0.00000  Uiso   1.00
O108   O     0.76890   0.69140   0.79047   0.00000  Uiso   1.00
O109   O     0.52190   0.73770   0.81785   0.00000  Uiso   1.00
O110   O     0.37510   0.65870   0.86840   0.00000  Uiso   1.00
O111   O     0.18540   0.48120   0.83817   0.00000  Uiso   1.00
O112   O     0.07360   0.43560   0.75031   0.00000  Uiso   1.00
O113   O     0.10650   0.41510   0.96710   0.00000  Uiso   1.00
H114   H     0.04500   0.38800   0.94180   0.00000  Uiso   1.00
H115   H     0.08390   0.44490   0.99910   0.00000  Uiso   1.00
O116   O     0.01040   0.63780   0.90230   0.00000  Uiso   1.00
H117   H     0.95750   0.60380   0.87550   0.00000  Uiso   1.00
H118   H     0.97570   0.70520   0.90540   0.00000  Uiso   1.00
O119   O     0.22210   0.80320   0.93890   0.00000  Uiso   1.00
H120   H     0.15480   0.84300   0.94430   0.00000  Uiso   1.00
H121   H     0.29200   0.83900   0.95260   0.00000  Uiso   1.00
N122   N     0.66290   0.33700   0.81550   0.00000  Uiso   1.00
N123   N     0.46780   0.36750   0.84140   0.00000  Uiso   1.00
H124   H     0.38460   0.37670   0.83830   0.00000  Uiso   1.00
N125   N     0.39050   0.68120   0.70910   0.00000  Uiso   1.00
N126   N     0.22290   0.56350   0.68600   0.00000  Uiso   1.00
H127   H     0.16370   0.52280   0.66470   0.00000  Uiso   1.00
C128   C     0.67380   0.35080   0.87670   0.00000  Uiso   1.00
C129   C     0.55150   0.37000   0.89380   0.00000  Uiso   1.00
C130   C     0.53730   0.34830   0.79530   0.00000  Uiso   1.00
C131   C     0.80500   0.34890   0.91280   0.00000  Uiso   1.00
C132   C     0.49390   0.38380   0.95130   0.00000  Uiso   1.00
C133   C     0.47530   0.33920   0.73090   0.00000  Uiso   1.00
H134   H     0.52060   0.28100   0.71020   0.00000  Uiso   1.00
H135   H     0.38550   0.31660   0.72990   0.00000  Uiso   1.00
H136   H     0.48030   0.41430   0.71140   0.00000  Uiso   1.00
C137   C     0.73560   0.54190   0.71500   0.00000  Uiso   1.00
C138   C     0.79580   0.58790   0.77690   0.00000  Uiso   1.00
C139   C     0.34720   0.64120   0.76160   0.00000  Uiso   1.00
C140   C     0.24200   0.56820   0.74720   0.00000  Uiso   1.00
C141   C     0.31240   0.63350   0.66400   0.00000  Uiso   1.00
C142   C     0.41820   0.68190   0.81960   0.00000  Uiso   1.00
C143   C     0.16070   0.48960   0.78200   0.00000  Uiso   1.00
C144   C     0.32020   0.64710   0.59820   0.00000  Uiso   1.00
H145   H     0.37840   0.58870   0.58560   0.00000  Uiso   1.00
H146   H     0.23490   0.63690   0.57610   0.00000  Uiso   1.00
H147   H     0.35230   0.72440   0.59060   0.00000  Uiso   1.00
Nd148  Nd    0.60910   0.80963   0.72543   0.00000  Uiso   1.00
Nd149  Nd    0.26161   0.08259   0.56450   0.00000  Uiso   1.00
O150   O     0.59990   0.82110   0.61544   0.00000  Uiso   1.00
O151   O     0.68020   0.87480   0.53236   0.00000  Uiso   1.00
O152   O     0.93730   0.86570   0.49877   0.00000  Uiso   1.00
O153   O     0.12450   0.91050   0.55439   0.00000  Uiso   1.00
O154   O     0.73190   0.94140   0.80107   0.00000  Uiso   1.00
O155   O     0.84220   0.10920   0.81572   0.00000  Uiso   1.00
O156   O     0.63170   0.01880   0.69039   0.00000  Uiso   1.00
O157   O     0.73110   0.19140   0.70953   0.00000  Uiso   1.00
O158   O     0.97810   0.23770   0.68215   0.00000  Uiso   1.00
O159   O     0.12490   0.15870   0.63160   0.00000  Uiso   1.00
O160   O     0.31460   0.98120   0.66183   0.00000  Uiso   1.00
O161   O     0.42640   0.93560   0.74969   0.00000  Uiso   1.00
O162   O     0.39350   0.91510   0.53290   0.00000  Uiso   1.00
H163   H     0.45500   0.88800   0.55820   0.00000  Uiso   1.00
H164   H     0.41610   0.94490   0.50090   0.00000  Uiso   1.00
O165   O     0.48960   0.13780   0.59770   0.00000  Uiso   1.00
H166   H     0.54250   0.10380   0.62450   0.00000  Uiso   1.00
H167   H     0.52430   0.20520   0.59460   0.00000  Uiso   1.00
O168   O     0.27790   0.30320   0.56110   0.00000  Uiso   1.00
H169   H     0.34520   0.34300   0.55570   0.00000  Uiso   1.00
H170   H     0.20800   0.33900   0.54740   0.00000  Uiso   1.00
N171   N     0.83710   0.83700   0.68450   0.00000  Uiso   1.00
N172   N     0.03220   0.86750   0.65860   0.00000  Uiso   1.00
H173   H     0.11540   0.87670   0.66170   0.00000  Uiso   1.00
N174   N     0.10950   0.18120   0.79090   0.00000  Uiso   1.00
N175   N     0.27710   0.06350   0.81400   0.00000  Uiso   1.00
H176   H     0.33630   0.02280   0.83530   0.00000  Uiso   1.00
C177   C     0.82620   0.85080   0.62330   0.00000  Uiso   1.00
C178   C     0.94850   0.87000   0.60620   0.00000  Uiso   1.00
C179   C     0.96270   0.84830   0.70470   0.00000  Uiso   1.00
C180   C     0.69500   0.84890   0.58720   0.00000  Uiso   1.00
C181   C     0.00610   0.88380   0.54870   0.00000  Uiso   1.00
C182   C     0.02470   0.83920   0.76910   0.00000  Uiso   1.00
H183   H     0.97940   0.78100   0.78980   0.00000  Uiso   1.00
H184   H     0.11450   0.81660   0.77010   0.00000  Uiso   1.00
H185   H     0.01970   0.91430   0.78860   0.00000  Uiso   1.00
C186   C     0.76440   0.04190   0.78500   0.00000  Uiso   1.00
C187   C     0.70420   0.08790   0.72310   0.00000  Uiso   1.00
C188   C     0.15280   0.14120   0.73840   0.00000  Uiso   1.00
C189   C     0.25800   0.06820   0.75280   0.00000  Uiso   1.00
C190   C     0.18760   0.13350   0.83600   0.00000  Uiso   1.00
C191   C     0.08180   0.18190   0.68040   0.00000  Uiso   1.00
C192   C     0.33930   0.98960   0.71800   0.00000  Uiso   1.00
C193   C     0.17980   0.14710   0.90180   0.00000  Uiso   1.00
H194   H     0.12160   0.08870   0.91440   0.00000  Uiso   1.00
H195   H     0.26510   0.13690   0.92390   0.00000  Uiso   1.00
H196   H     0.14770   0.22440   0.90940   0.00000  Uiso   1.00
loop_
_geom_bond_atom_site_label_1
_geom_bond_atom_site_label_2
_geom_bond_distance
_geom_bond_site_symmetry_2
_ccdc_geom_bond_type
Nd1    O3      2.448   .     S
Nd1    O7      2.479   .     S
Nd1    O9      2.517   .     S
Nd1    O14     2.480   1_455 S
Nd1    N24     2.649   .     S
Nd1    O57     2.525   .     S
Nd1    O59     2.453   .     S
Nd1    O60     2.490   .     S
Nd1    N76     2.672   1_455 S
Nd2    O12     2.348   .     S
Nd2    O13     2.457   .     S
Nd2    O15     2.490   .     S
Nd2    O18     2.457   .     S
Nd2    O21     2.508   .     S
Nd2    O102    2.366   1_554 S
Nd2    O103    2.412   .     S
Nd2    O6      2.404   .     S
O3     C33     1.272   .     S
O4     C33     1.249   .     S
O4     Nd100   2.366   1_554 S
O5     C34     1.260   1_556 S
O5     Nd100   2.412   .     S
O6     C34     1.250   .     S
O7     C39     1.253   .     S
O8     C39     1.248   .     S
O8     Nd50    2.525   .     S
O9     C40     1.252   .     S
O10    C40     1.252   .     S
O10    Nd50    2.453   .     S
O11    C44     1.248   .     S
O11    Nd50    2.490   .     S
O12    C44     1.255   .     S
O13    C45     1.251   .     S
O14    Nd1     2.480   1_655 S
O14    C45     1.234   .     S
O15    H16     0.852   .     S
O15    H17     0.849   .     S
O18    H19     0.849   1_655 S
O18    H20     0.850   1_655 S
H19    O18     0.849   1_455 S
H20    O18     0.850   1_455 S
O21    H22     0.850   .     S
O21    H23     0.850   .     S
N24    C30     1.365   .     S
N24    C32     1.324   .     S
N25    H26     0.859   .     S
N25    C31     1.363   .     S
N25    C32     1.345   .     S
N27    C41     1.382   .     S
N27    C43     1.323   .     S
N27    Nd50    2.672   .     S
N28    H29     0.859   .     S
N28    C42     1.356   .     S
N28    C43     1.356   .     S
C30    C33     1.486   .     S
C30    C31     1.382   .     S
C31    C34     1.489   .     S
C32    C35     1.501   .     S
C34    O5      1.260   1_554 S
C35    H36     0.960   .     S
C35    H37     0.959   .     S
C35    H38     0.960   .     S
C39    C40     1.532   .     S
C41    C42     1.371   .     S
C41    C44     1.478   .     S
C42    C45     1.506   .     S
C43    C46     1.489   .     S
C46    H47     0.960   .     S
C46    H48     0.960   .     S
C46    H49     0.960   .     S
Nd50   O52     2.448   .     S
Nd50   O56     2.479   .     S
Nd50   O58     2.517   1_545 S
Nd50   O63     2.480   .     S
Nd50   N73     2.649   .     S
Nd51   O61     2.348   .     S
Nd51   O62     2.457   1_565 S
Nd51   O64     2.490   1_565 S
Nd51   O67     2.457   .     S
Nd51   O70     2.508   .     S
Nd51   O151    2.366   .     S
Nd51   O152    2.412   .     S
Nd51   O55     2.404   1_565 S
O52    C82     1.272   .     S
O53    C82     1.249   .     S
O53    Nd149   2.366   .     S
O54    C83     1.260   1_455 S
O54    Nd149   2.412   .     S
O55    C83     1.250   .     S
O55    Nd51    2.404   1_545 S
O56    C88     1.253   1_545 S
O57    C88     1.248   .     S
O58    Nd50    2.517   1_565 S
O58    C89     1.252   .     S
O59    C89     1.252   .     S
O60    C93     1.248   1_455 S
O61    C93     1.255   .     S
O62    Nd51    2.457   1_545 S
O62    C94     1.251   .     S
O63    C94     1.234   .     S
O64    Nd51    2.490   1_545 S
O64    H65     0.852   .     S
O64    H66     0.849   .     S
O67    H68     0.849   .     S
O67    H69     0.850   .     S
O70    H71     0.850   .     S
O70    H72     0.850   .     S
N73    C79     1.365   .     S
N73    C81     1.324   .     S
N74    H75     0.859   .     S
N74    C80     1.363   1_655 S
N74    C81     1.345   1_655 S
N76    C90     1.382   .     S
N76    C92     1.323   .     S
N76    Nd1     2.672   1_655 S
N77    H78     0.859   .     S
N77    C91     1.356   .     S
N77    C92     1.356   .     S
C79    C82     1.486   .     S
C79    C80     1.382   .     S
C80    N74     1.363   1_455 S
C80    C83     1.489   1_455 S
C81    C84     1.501   1_455 S
C81    N74     1.345   1_455 S
C83    O54     1.260   1_655 S
C83    C80     1.489   1_655 S
C84    C81     1.501   1_655 S
C84    H85     0.960   1_655 S
C84    H86     0.959   .     S
C84    H87     0.960   .     S
H85    C84     0.960   1_455 S
C88    O56     1.253   1_565 S
C88    C89     1.532   .     S
C90    C91     1.371   .     S
C90    C93     1.478   .     S
C91    C94     1.506   1_565 S
C92    C95     1.489   .     S
C93    O60     1.248   1_655 S
C94    C91     1.506   1_545 S
C95    H96     0.960   .     S
C95    H97     0.960   .     S
C95    H98     0.960   .     S
Nd99   O101    2.448   .     S
Nd99   O105    2.479   .     S
Nd99   O107    2.517   .     S
Nd99   O112    2.480   1_655 S
Nd99   N122    2.649   .     S
Nd99   O155    2.525   .     S
Nd99   O157    2.453   .     S
Nd99   O158    2.490   .     S
Nd99   N174    2.672   1_655 S
Nd100  O110    2.348   .     S
Nd100  O111    2.457   .     S
Nd100  O113    2.490   .     S
Nd100  O116    2.457   .     S
Nd100  O119    2.508   .     S
Nd100  O4      2.366   1_556 S
Nd100  O104    2.404   .     S
O101   C131    1.272   .     S
O102   C131    1.249   .     S
O102   Nd2     2.366   1_556 S
O103   C132    1.260   1_554 S
O104   C132    1.250   .     S
O105   C137    1.253   .     S
O106   C137    1.248   .     S
O106   Nd148   2.525   .     S
O107   C138    1.252   .     S
O108   C138    1.252   .     S
O108   Nd148   2.453   .     S
O109   C142    1.248   .     S
O109   Nd148   2.490   .     S
O110   C142    1.255   .     S
O111   C143    1.251   .     S
O112   Nd99    2.480   1_455 S
O112   C143    1.234   .     S
O113   H114    0.852   .     S
O113   H115    0.849   .     S
O116   H117    0.849   1_455 S
O116   H118    0.850   1_455 S
H117   O116    0.849   1_655 S
H118   O116    0.850   1_655 S
O119   H120    0.850   .     S
O119   H121    0.850   .     S
N122   C128    1.365   .     S
N122   C130    1.324   .     S
N123   H124    0.859   .     S
N123   C129    1.363   .     S
N123   C130    1.345   .     S
N125   C139    1.382   .     S
N125   C141    1.323   .     S
N125   Nd148   2.672   .     S
N126   H127    0.859   .     S
N126   C140    1.356   .     S
N126   C141    1.356   .     S
C128   C131    1.486   .     S
C128   C129    1.382   .     S
C129   C132    1.489   .     S
C130   C133    1.501   .     S
C132   O103    1.260   1_556 S
C133   H134    0.960   .     S
C133   H135    0.959   .     S
C133   H136    0.960   .     S
C137   C138    1.532   .     S
C139   C140    1.371   .     S
C139   C142    1.478   .     S
C140   C143    1.506   .     S
C141   C144    1.489   .     S
C144   H145    0.960   .     S
C144   H146    0.960   .     S
C144   H147    0.960   .     S
Nd148  O150    2.448   .     S
Nd148  O154    2.479   .     S
Nd148  O156    2.517   1_565 S
Nd148  O161    2.480   .     S
Nd148  N171    2.649   .     S
Nd149  O159    2.348   .     S
Nd149  O160    2.457   1_545 S
Nd149  O162    2.490   1_545 S
Nd149  O165    2.457   .     S
Nd149  O168    2.508   .     S
Nd149  O153    2.404   1_545 S
O150   C180    1.272   .     S
O151   C180    1.249   .     S
O152   C181    1.260   1_655 S
O153   C181    1.250   .     S
O153   Nd149   2.404   1_565 S
O154   C186    1.253   1_565 S
O155   C186    1.248   .     S
O156   Nd148   2.517   1_545 S
O156   C187    1.252   .     S
O157   C187    1.252   .     S
O158   C191    1.248   1_655 S
O159   C191    1.255   .     S
O160   Nd149   2.457   1_565 S
O160   C192    1.251   .     S
O161   C192    1.234   .     S
O162   Nd149   2.490   1_565 S
O162   H163    0.852   .     S
O162   H164    0.849   .     S
O165   H166    0.849   .     S
O165   H167    0.850   .     S
O168   H169    0.850   .     S
O168   H170    0.850   .     S
N171   C177    1.365   .     S
N171   C179    1.324   .     S
N172   H173    0.859   .     S
N172   C178    1.363   1_455 S
N172   C179    1.345   1_455 S
N174   C188    1.382   .     S
N174   C190    1.323   .     S
N174   Nd99    2.672   1_455 S
N175   H176    0.859   .     S
N175   C189    1.356   .     S
N175   C190    1.356   .     S
C177   C180    1.486   .     S
C177   C178    1.382   .     S
C178   N172    1.363   1_655 S
C178   C181    1.489   1_655 S
C179   C182    1.501   1_655 S
C179   N172    1.345   1_655 S
C181   O152    1.260   1_455 S
C181   C178    1.489   1_455 S
C182   C179    1.501   1_455 S
C182   H183    0.960   1_455 S
C182   H184    0.959   .     S
C182   H185    0.960   .     S
H183   C182    0.960   1_655 S
C186   O154    1.253   1_545 S
C186   C187    1.532   .     S
C188   C189    1.371   .     S
C188   C191    1.478   .     S
C189   C192    1.506   1_545 S
C190   C193    1.489   .     S
C191   O158    1.248   1_455 S
C192   C189    1.506   1_565 S
C193   H194    0.960   .     S
C193   H195    0.960   .     S
C193   H196    0.960   .     S
