data_FATKOC_FSR
_audit_creation_date              2024-06-11
_audit_creation_method            'Materials Studio'
_symmetry_space_group_name_H-M    'P1'
_symmetry_Int_Tables_number       1
_symmetry_cell_setting            triclinic
loop_
_symmetry_equiv_pos_as_xyz
  x,y,z
_cell_length_a                    10.2289
_cell_length_b                    11.2526
_cell_length_c                    22.1877
_cell_angle_alpha                 90.0000
_cell_angle_beta                  96.9670
_cell_angle_gamma                 90.0000
loop_
_atom_site_label
_atom_site_type_symbol
_atom_site_fract_x
_atom_site_fract_y
_atom_site_fract_z
_atom_site_U_iso_or_equiv
_atom_site_adp_type
_atom_site_occupancy
Eu1    Eu    0.24046   0.58689   0.43604   0.00000  Uiso   1.00
Eu2    Eu    0.88954   0.31310   0.27443   0.00000  Uiso   1.00
O3     O     0.18630   0.48590   0.34053   0.00000  Uiso   1.00
O4     O     0.07150   0.43850   0.25177   0.00000  Uiso   1.00
O5     O     0.37830   0.66150   0.36931   0.00000  Uiso   1.00
O6     O     0.52370   0.74500   0.31779   0.00000  Uiso   1.00
O7     O     0.90240   0.32340   0.38361   0.00000  Uiso   1.00
O8     O     0.82040   0.37140   0.46786   0.00000  Uiso   1.00
O9     O     0.56020   0.36460   0.50131   0.00000  Uiso   1.00
O10    O     0.37310   0.41390   0.44626   0.00000  Uiso   1.00
O11    O     0.65960   0.61390   0.18386   0.00000  Uiso   1.00
O12    O     0.77110   0.44350   0.19951   0.00000  Uiso   1.00
O13    O     0.76850   0.69580   0.29145   0.00000  Uiso   1.00
O14    O     0.86740   0.52110   0.31100   0.00000  Uiso   1.00
O15    O     0.10680   0.42270   0.46608   0.00000  Uiso   1.00
H16    H     0.08500   0.41900   0.50160   0.00000  Uiso   1.00
H17    H     0.04500   0.39400   0.44100   0.00000  Uiso   1.00
O18    O     0.01620   0.64420   0.40140   0.00000  Uiso   1.00
H19    H     0.96100   0.60200   0.37900   0.00000  Uiso   1.00
H20    H     0.98200   0.71200   0.40600   0.00000  Uiso   1.00
O21    O     0.22960   0.80580   0.44050   0.00000  Uiso   1.00
N22    N     0.39340   0.68490   0.20900   0.00000  Uiso   1.00
N23    N     0.22240   0.56830   0.18642   0.00000  Uiso   1.00
H24    H     0.16120   0.52900   0.16500   0.00000  Uiso   1.00
N25    N     0.66380   0.33920   0.31443   0.00000  Uiso   1.00
N26    N     0.46680   0.37020   0.34087   0.00000  Uiso   1.00
H27    H     0.38300   0.38110   0.33780   0.00000  Uiso   1.00
C28    C     0.15940   0.49440   0.28380   0.00000  Uiso   1.00
C29    C     0.24280   0.57180   0.24840   0.00000  Uiso   1.00
C30    C     0.34880   0.64580   0.26210   0.00000  Uiso   1.00
C31    C     0.42070   0.68610   0.32060   0.00000  Uiso   1.00
C32    C     0.31350   0.63640   0.16430   0.00000  Uiso   1.00
C33    C     0.32140   0.65130   0.09800   0.00000  Uiso   1.00
H34    H     0.27360   0.58830   0.07600   0.00000  Uiso   1.00
H35    H     0.41190   0.64870   0.09060   0.00000  Uiso   1.00
H36    H     0.28370   0.72630   0.08470   0.00000  Uiso   1.00
C37    C     0.80620   0.34820   0.41253   0.00000  Uiso   1.00
C38    C     0.67340   0.35200   0.37690   0.00000  Uiso   1.00
C39    C     0.55040   0.37100   0.39400   0.00000  Uiso   1.00
C40    C     0.49270   0.38540   0.45190   0.00000  Uiso   1.00
C41    C     0.53660   0.34960   0.29450   0.00000  Uiso   1.00
C42    C     0.47470   0.34380   0.22990   0.00000  Uiso   1.00
H43    H     0.48110   0.42010   0.21110   0.00000  Uiso   1.00
H44    H     0.38360   0.32210   0.22870   0.00000  Uiso   1.00
H45    H     0.51960   0.28550   0.20840   0.00000  Uiso   1.00
C46    C     0.73690   0.54530   0.21490   0.00000  Uiso   1.00
C47    C     0.79580   0.59110   0.27820   0.00000  Uiso   1.00
Eu48   Eu    0.25954   0.08689   0.06396   0.00000  Uiso   1.00
Eu49   Eu    0.61046   0.81310   0.22557   0.00000  Uiso   1.00
O50    O     0.31370   0.98590   0.15947   0.00000  Uiso   1.00
O51    O     0.42850   0.93850   0.24823   0.00000  Uiso   1.00
O52    O     0.12170   0.16150   0.13069   0.00000  Uiso   1.00
O53    O     0.97630   0.24500   0.18221   0.00000  Uiso   1.00
O54    O     0.59760   0.82340   0.11639   0.00000  Uiso   1.00
O55    O     0.67960   0.87140   0.03214   0.00000  Uiso   1.00
O56    O     0.93980   0.86460   0.99869   0.00000  Uiso   1.00
O57    O     0.12690   0.91390   0.05374   0.00000  Uiso   1.00
O58    O     0.84040   0.11390   0.31614   0.00000  Uiso   1.00
O59    O     0.72890   0.94350   0.30049   0.00000  Uiso   1.00
O60    O     0.73150   0.19580   0.20855   0.00000  Uiso   1.00
O61    O     0.63260   0.02110   0.18900   0.00000  Uiso   1.00
O62    O     0.39320   0.92270   0.03392   0.00000  Uiso   1.00
H63    H     0.41500   0.91900   0.99840   0.00000  Uiso   1.00
H64    H     0.45500   0.89400   0.05900   0.00000  Uiso   1.00
O65    O     0.48380   0.14420   0.09860   0.00000  Uiso   1.00
H66    H     0.53900   0.10200   0.12100   0.00000  Uiso   1.00
H67    H     0.51800   0.21200   0.09400   0.00000  Uiso   1.00
O68    O     0.27040   0.30580   0.05950   0.00000  Uiso   1.00
N69    N     0.10660   0.18490   0.29100   0.00000  Uiso   1.00
N70    N     0.27760   0.06830   0.31358   0.00000  Uiso   1.00
H71    H     0.33880   0.02900   0.33500   0.00000  Uiso   1.00
N72    N     0.83620   0.83920   0.18557   0.00000  Uiso   1.00
N73    N     0.03320   0.87020   0.15913   0.00000  Uiso   1.00
H74    H     0.11700   0.88110   0.16220   0.00000  Uiso   1.00
C75    C     0.34060   0.99440   0.21620   0.00000  Uiso   1.00
C76    C     0.25720   0.07180   0.25160   0.00000  Uiso   1.00
C77    C     0.15120   0.14580   0.23790   0.00000  Uiso   1.00
C78    C     0.07930   0.18610   0.17940   0.00000  Uiso   1.00
C79    C     0.18650   0.13640   0.33570   0.00000  Uiso   1.00
C80    C     0.17860   0.15130   0.40200   0.00000  Uiso   1.00
H81    H     0.22640   0.08830   0.42400   0.00000  Uiso   1.00
H82    H     0.08810   0.14870   0.40940   0.00000  Uiso   1.00
H83    H     0.21630   0.22630   0.41530   0.00000  Uiso   1.00
C84    C     0.69380   0.84820   0.08747   0.00000  Uiso   1.00
C85    C     0.82660   0.85200   0.12310   0.00000  Uiso   1.00
C86    C     0.94960   0.87100   0.10600   0.00000  Uiso   1.00
C87    C     0.00730   0.88540   0.04810   0.00000  Uiso   1.00
C88    C     0.96340   0.84960   0.20550   0.00000  Uiso   1.00
C89    C     0.02530   0.84380   0.27010   0.00000  Uiso   1.00
H90    H     0.01890   0.92010   0.28890   0.00000  Uiso   1.00
H91    H     0.11640   0.82210   0.27130   0.00000  Uiso   1.00
H92    H     0.98040   0.78550   0.29160   0.00000  Uiso   1.00
C93    C     0.76310   0.04530   0.28510   0.00000  Uiso   1.00
C94    C     0.70420   0.09110   0.22180   0.00000  Uiso   1.00
Eu95   Eu    0.75954   0.41311   0.56396   0.00000  Uiso   1.00
Eu96   Eu    0.11046   0.68690   0.72557   0.00000  Uiso   1.00
O97    O     0.81370   0.51410   0.65947   0.00000  Uiso   1.00
O98    O     0.92850   0.56150   0.74823   0.00000  Uiso   1.00
O99    O     0.62170   0.33850   0.63069   0.00000  Uiso   1.00
O100   O     0.47630   0.25500   0.68221   0.00000  Uiso   1.00
O101   O     0.09760   0.67660   0.61639   0.00000  Uiso   1.00
O102   O     0.17960   0.62860   0.53214   0.00000  Uiso   1.00
O103   O     0.43980   0.63540   0.49869   0.00000  Uiso   1.00
O104   O     0.62690   0.58610   0.55374   0.00000  Uiso   1.00
O105   O     0.34040   0.38610   0.81614   0.00000  Uiso   1.00
O106   O     0.22890   0.55650   0.80049   0.00000  Uiso   1.00
O107   O     0.23150   0.30420   0.70855   0.00000  Uiso   1.00
O108   O     0.13260   0.47890   0.68900   0.00000  Uiso   1.00
O109   O     0.89320   0.57730   0.53392   0.00000  Uiso   1.00
H110   H     0.91500   0.58100   0.49840   0.00000  Uiso   1.00
H111   H     0.95500   0.60600   0.55900   0.00000  Uiso   1.00
O112   O     0.98380   0.35580   0.59860   0.00000  Uiso   1.00
H113   H     0.03900   0.39800   0.62100   0.00000  Uiso   1.00
H114   H     0.01800   0.28800   0.59400   0.00000  Uiso   1.00
O115   O     0.77040   0.19420   0.55950   0.00000  Uiso   1.00
N116   N     0.60660   0.31510   0.79100   0.00000  Uiso   1.00
N117   N     0.77760   0.43170   0.81358   0.00000  Uiso   1.00
H118   H     0.83880   0.47100   0.83500   0.00000  Uiso   1.00
N119   N     0.33620   0.66080   0.68557   0.00000  Uiso   1.00
N120   N     0.53320   0.62980   0.65913   0.00000  Uiso   1.00
H121   H     0.61700   0.61890   0.66220   0.00000  Uiso   1.00
C122   C     0.84060   0.50560   0.71620   0.00000  Uiso   1.00
C123   C     0.75720   0.42820   0.75160   0.00000  Uiso   1.00
C124   C     0.65120   0.35420   0.73790   0.00000  Uiso   1.00
C125   C     0.57930   0.31390   0.67940   0.00000  Uiso   1.00
C126   C     0.68650   0.36360   0.83570   0.00000  Uiso   1.00
C127   C     0.67860   0.34870   0.90200   0.00000  Uiso   1.00
H128   H     0.72640   0.41170   0.92400   0.00000  Uiso   1.00
H129   H     0.58810   0.35130   0.90940   0.00000  Uiso   1.00
H130   H     0.71630   0.27370   0.91530   0.00000  Uiso   1.00
C131   C     0.19380   0.65180   0.58747   0.00000  Uiso   1.00
C132   C     0.32660   0.64800   0.62310   0.00000  Uiso   1.00
C133   C     0.44960   0.62900   0.60600   0.00000  Uiso   1.00
C134   C     0.50730   0.61460   0.54810   0.00000  Uiso   1.00
C135   C     0.46340   0.65040   0.70550   0.00000  Uiso   1.00
C136   C     0.52530   0.65620   0.77010   0.00000  Uiso   1.00
H137   H     0.51890   0.57990   0.78890   0.00000  Uiso   1.00
H138   H     0.61640   0.67790   0.77130   0.00000  Uiso   1.00
H139   H     0.48040   0.71450   0.79160   0.00000  Uiso   1.00
C140   C     0.26310   0.45470   0.78510   0.00000  Uiso   1.00
C141   C     0.20420   0.40890   0.72180   0.00000  Uiso   1.00
Eu142  Eu    0.74046   0.91311   0.93604   0.00000  Uiso   1.00
Eu143  Eu    0.38954   0.18690   0.77443   0.00000  Uiso   1.00
O144   O     0.68630   0.01410   0.84053   0.00000  Uiso   1.00
O145   O     0.57150   0.06150   0.75177   0.00000  Uiso   1.00
O146   O     0.87830   0.83850   0.86931   0.00000  Uiso   1.00
O147   O     0.02370   0.75500   0.81779   0.00000  Uiso   1.00
O148   O     0.40240   0.17660   0.88361   0.00000  Uiso   1.00
O149   O     0.32040   0.12860   0.96786   0.00000  Uiso   1.00
O150   O     0.06020   0.13540   0.00131   0.00000  Uiso   1.00
O151   O     0.87310   0.08610   0.94626   0.00000  Uiso   1.00
O152   O     0.15960   0.88610   0.68386   0.00000  Uiso   1.00
O153   O     0.27110   0.05650   0.69951   0.00000  Uiso   1.00
O154   O     0.26850   0.80420   0.79145   0.00000  Uiso   1.00
O155   O     0.36740   0.97890   0.81100   0.00000  Uiso   1.00
O156   O     0.60680   0.07730   0.96608   0.00000  Uiso   1.00
H157   H     0.58500   0.08100   0.00160   0.00000  Uiso   1.00
H158   H     0.54500   0.10600   0.94100   0.00000  Uiso   1.00
O159   O     0.51620   0.85580   0.90140   0.00000  Uiso   1.00
H160   H     0.46100   0.89800   0.87900   0.00000  Uiso   1.00
H161   H     0.48200   0.78800   0.90600   0.00000  Uiso   1.00
O162   O     0.72960   0.69420   0.94050   0.00000  Uiso   1.00
N163   N     0.89340   0.81510   0.70900   0.00000  Uiso   1.00
N164   N     0.72240   0.93170   0.68642   0.00000  Uiso   1.00
H165   H     0.66120   0.97100   0.66500   0.00000  Uiso   1.00
N166   N     0.16380   0.16080   0.81443   0.00000  Uiso   1.00
N167   N     0.96680   0.12980   0.84087   0.00000  Uiso   1.00
H168   H     0.88300   0.11890   0.83780   0.00000  Uiso   1.00
C169   C     0.65940   0.00560   0.78380   0.00000  Uiso   1.00
C170   C     0.74280   0.92820   0.74840   0.00000  Uiso   1.00
C171   C     0.84880   0.85420   0.76210   0.00000  Uiso   1.00
C172   C     0.92070   0.81390   0.82060   0.00000  Uiso   1.00
C173   C     0.81350   0.86360   0.66430   0.00000  Uiso   1.00
C174   C     0.82140   0.84870   0.59800   0.00000  Uiso   1.00
H175   H     0.77360   0.91170   0.57600   0.00000  Uiso   1.00
H176   H     0.91190   0.85130   0.59060   0.00000  Uiso   1.00
H177   H     0.78370   0.77370   0.58470   0.00000  Uiso   1.00
C178   C     0.30620   0.15180   0.91253   0.00000  Uiso   1.00
C179   C     0.17340   0.14800   0.87690   0.00000  Uiso   1.00
C180   C     0.05040   0.12900   0.89400   0.00000  Uiso   1.00
C181   C     0.99270   0.11460   0.95190   0.00000  Uiso   1.00
C182   C     0.03660   0.15040   0.79450   0.00000  Uiso   1.00
C183   C     0.97470   0.15620   0.72990   0.00000  Uiso   1.00
H184   H     0.98110   0.07990   0.71110   0.00000  Uiso   1.00
H185   H     0.88360   0.17790   0.72870   0.00000  Uiso   1.00
H186   H     0.01960   0.21450   0.70840   0.00000  Uiso   1.00
C187   C     0.23690   0.95470   0.71490   0.00000  Uiso   1.00
C188   C     0.29580   0.90890   0.77820   0.00000  Uiso   1.00
loop_
_geom_bond_atom_site_label_1
_geom_bond_atom_site_label_2
_geom_bond_distance
_geom_bond_site_symmetry_2
_ccdc_geom_bond_type
Eu1    O3      2.409   .     S
Eu1    O5      2.322   .     S
Eu1    O10     2.368   .     S
Eu1    O15     2.439   .     S
Eu1    O18     2.417   .     S
Eu1    O21     2.468   .     S
Eu1    O102    2.340   .     S
Eu1    O103    2.388   .     S
Eu2    O4      2.436   1_655 S
Eu2    O12     2.428   .     S
Eu2    O14     2.496   .     S
Eu2    O53     2.450   .     S
Eu2    O7      2.413   .     S
Eu2    O58     2.499   .     S
Eu2    O60     2.433   .     S
Eu2    N69     2.636   1_655 S
Eu2    N25     2.589   .     S
O3     C28     1.259   .     S
O4     Eu2     2.436   1_455 S
O4     C28     1.247   .     S
O5     C31     1.244   .     S
O6     C31     1.253   .     S
O6     Eu49    2.450   .     S
O7     C37     1.269   .     S
O8     C37     1.246   .     S
O8     Eu95    2.340   .     S
O9     C40     1.245   .     S
O9     Eu95    2.388   .     S
O10    C40     1.256   .     S
O11    C46     1.250   .     S
O11    Eu49    2.499   .     S
O12    C46     1.257   .     S
O13    C47     1.254   .     S
O13    Eu49    2.433   .     S
O14    C47     1.248   .     S
O15    H16     0.846   .     S
O15    H17     0.853   .     S
O18    H19     0.850   1_455 S
O18    H20     0.851   1_455 S
H19    O18     0.850   1_655 S
H20    O18     0.851   1_655 S
N22    C30     1.386   .     S
N22    C32     1.324   .     S
N22    Eu49    2.636   .     S
N23    H24     0.861   .     S
N23    C29     1.366   .     S
N23    C32     1.344   .     S
N25    C38     1.385   .     S
N25    C41     1.328   .     S
N26    H27     0.860   .     S
N26    C39     1.370   .     S
N26    C41     1.342   .     S
C28    C29     1.505   .     S
C29    C30     1.372   .     S
C30    C31     1.483   .     S
C32    C33     1.492   .     S
C33    H34     0.960   .     S
C33    H35     0.960   .     S
C33    H36     0.959   .     S
C37    C38     1.487   .     S
C38    C39     1.374   .     S
C39    C40     1.486   .     S
C41    C42     1.496   .     S
C42    H43     0.960   .     S
C42    H44     0.961   .     S
C42    H45     0.960   .     S
C46    C47     1.548   .     S
Eu48   O50     2.409   1_545 S
Eu48   O52     2.322   .     S
Eu48   O57     2.368   1_545 S
Eu48   O62     2.439   1_545 S
Eu48   O65     2.417   .     S
Eu48   O68     2.468   .     S
Eu48   O149    2.340   1_554 S
Eu48   O150    2.388   .     S
Eu49   O51     2.436   .     S
Eu49   O59     2.428   .     S
Eu49   O61     2.496   1_565 S
Eu49   O54     2.413   .     S
Eu49   N72     2.589   .     S
O50    Eu48    2.409   1_565 S
O50    C75     1.259   .     S
O51    C75     1.247   .     S
O52    C78     1.244   .     S
O53    C78     1.253   1_655 S
O54    C84     1.269   .     S
O55    C84     1.246   .     S
O55    Eu142   2.340   1_554 S
O56    C87     1.245   1_656 S
O56    Eu142   2.388   .     S
O57    Eu48    2.368   1_565 S
O57    C87     1.256   .     S
O58    C93     1.250   .     S
O59    C93     1.257   1_565 S
O60    C94     1.254   .     S
O61    Eu49    2.496   1_545 S
O61    C94     1.248   .     S
O62    Eu48    2.439   1_565 S
O62    H63     0.846   1_554 S
O62    H64     0.853   .     S
H63    O62     0.846   1_556 S
O65    H66     0.850   .     S
O65    H67     0.851   .     S
N69    C77     1.386   .     S
N69    C79     1.324   .     S
N69    Eu2     2.636   1_455 S
N70    H71     0.861   .     S
N70    C76     1.366   .     S
N70    C79     1.344   .     S
N72    C85     1.385   .     S
N72    C88     1.328   .     S
N73    H74     0.860   .     S
N73    C86     1.370   1_455 S
N73    C88     1.342   1_455 S
C75    C76     1.505   1_565 S
C76    C75     1.505   1_545 S
C76    C77     1.372   .     S
C77    C78     1.483   .     S
C78    O53     1.253   1_455 S
C79    C80     1.492   .     S
C80    H81     0.960   .     S
C80    H82     0.960   .     S
C80    H83     0.959   .     S
C84    C85     1.487   .     S
C85    C86     1.374   .     S
C86    N73     1.370   1_655 S
C86    C87     1.486   1_655 S
C87    O56     1.245   1_454 S
C87    C86     1.486   1_455 S
C88    C89     1.496   1_655 S
C88    N73     1.342   1_655 S
C89    C88     1.496   1_455 S
C89    H90     0.960   .     S
C89    H91     0.961   .     S
C89    H92     0.960   1_455 S
H92    C89     0.960   1_655 S
C93    O59     1.257   1_545 S
C93    C94     1.548   .     S
Eu95   O97     2.409   .     S
Eu95   O99     2.322   .     S
Eu95   O104    2.368   .     S
Eu95   O109    2.439   .     S
Eu95   O112    2.417   .     S
Eu95   O115    2.468   .     S
Eu96   O98     2.436   1_455 S
Eu96   O106    2.428   .     S
Eu96   O108    2.496   .     S
Eu96   O147    2.450   .     S
Eu96   O101    2.413   .     S
Eu96   O152    2.499   .     S
Eu96   O154    2.433   .     S
Eu96   N163    2.636   1_455 S
Eu96   N119    2.589   .     S
O97    C122    1.259   .     S
O98    Eu96    2.436   1_655 S
O98    C122    1.247   .     S
O99    C125    1.244   .     S
O100   C125    1.253   .     S
O100   Eu143   2.450   .     S
O101   C131    1.269   .     S
O102   C131    1.246   .     S
O103   C134    1.245   .     S
O104   C134    1.256   .     S
O105   C140    1.250   .     S
O105   Eu143   2.499   .     S
O106   C140    1.257   .     S
O107   C141    1.254   .     S
O107   Eu143   2.433   .     S
O108   C141    1.248   .     S
O109   H110    0.846   .     S
O109   H111    0.853   .     S
O112   H113    0.850   1_655 S
O112   H114    0.851   1_655 S
H113   O112    0.850   1_455 S
H114   O112    0.851   1_455 S
N116   C124    1.386   .     S
N116   C126    1.324   .     S
N116   Eu143   2.636   .     S
N117   H118    0.861   .     S
N117   C123    1.366   .     S
N117   C126    1.344   .     S
N119   C132    1.385   .     S
N119   C135    1.328   .     S
N120   H121    0.860   .     S
N120   C133    1.370   .     S
N120   C135    1.342   .     S
C122   C123    1.505   .     S
C123   C124    1.372   .     S
C124   C125    1.483   .     S
C126   C127    1.492   .     S
C127   H128    0.960   .     S
C127   H129    0.960   .     S
C127   H130    0.959   .     S
C131   C132    1.487   .     S
C132   C133    1.374   .     S
C133   C134    1.486   .     S
C135   C136    1.496   .     S
C136   H137    0.960   .     S
C136   H138    0.961   .     S
C136   H139    0.960   .     S
C140   C141    1.548   .     S
Eu142  O144    2.409   1_565 S
Eu142  O146    2.322   .     S
Eu142  O151    2.368   1_565 S
Eu142  O156    2.439   1_565 S
Eu142  O159    2.417   .     S
Eu142  O162    2.468   .     S
Eu142  O55     2.340   1_556 S
Eu143  O145    2.436   .     S
Eu143  O153    2.428   .     S
Eu143  O155    2.496   1_545 S
Eu143  O148    2.413   .     S
Eu143  N166    2.589   .     S
O144   Eu142   2.409   1_545 S
O144   C169    1.259   .     S
O145   C169    1.247   .     S
O146   C172    1.244   .     S
O147   C172    1.253   1_455 S
O148   C178    1.269   .     S
O149   C178    1.246   .     S
O149   Eu48    2.340   1_556 S
O150   C181    1.245   1_454 S
O151   Eu142   2.368   1_545 S
O151   C181    1.256   .     S
O152   C187    1.250   .     S
O153   C187    1.257   1_545 S
O154   C188    1.254   .     S
O155   Eu143   2.496   1_565 S
O155   C188    1.248   .     S
O156   Eu142   2.439   1_545 S
O156   H157    0.846   1_556 S
O156   H158    0.853   .     S
H157   O156    0.846   1_554 S
O159   H160    0.850   .     S
O159   H161    0.851   .     S
N163   C171    1.386   .     S
N163   C173    1.324   .     S
N163   Eu96    2.636   1_655 S
N164   H165    0.861   .     S
N164   C170    1.366   .     S
N164   C173    1.344   .     S
N166   C179    1.385   .     S
N166   C182    1.328   .     S
N167   H168    0.860   .     S
N167   C180    1.370   1_655 S
N167   C182    1.342   1_655 S
C169   C170    1.505   1_545 S
C170   C169    1.505   1_565 S
C170   C171    1.372   .     S
C171   C172    1.483   .     S
C172   O147    1.253   1_655 S
C173   C174    1.492   .     S
C174   H175    0.960   .     S
C174   H176    0.960   .     S
C174   H177    0.959   .     S
C178   C179    1.487   .     S
C179   C180    1.374   .     S
C180   N167    1.370   1_455 S
C180   C181    1.486   1_455 S
C181   O150    1.245   1_656 S
C181   C180    1.486   1_655 S
C182   C183    1.496   1_455 S
C182   N167    1.342   1_455 S
C183   C182    1.496   1_655 S
C183   H184    0.960   .     S
C183   H185    0.961   .     S
C183   H186    0.960   1_655 S
H186   C183    0.960   1_455 S
C187   O153    1.257   1_565 S
C187   C188    1.548   .     S
