data_FATKIW_FSR
_audit_creation_date              2024-06-11
_audit_creation_method            'Materials Studio'
_symmetry_space_group_name_H-M    'P1'
_symmetry_Int_Tables_number       1
_symmetry_cell_setting            triclinic
loop_
_symmetry_equiv_pos_as_xyz
  x,y,z
_cell_length_a                    10.2550
_cell_length_b                    11.2680
_cell_length_c                    22.1940
_cell_angle_alpha                 90.0000
_cell_angle_beta                  97.0610
_cell_angle_gamma                 90.0000
loop_
_atom_site_label
_atom_site_type_symbol
_atom_site_fract_x
_atom_site_fract_y
_atom_site_fract_z
_atom_site_U_iso_or_equiv
_atom_site_adp_type
_atom_site_occupancy
Sm1    Sm    0.61008   0.81166   0.22551   0.00000  Uiso   1.00
Sm2    Sm    0.26023   0.08515   0.06417   0.00000  Uiso   1.00
N3     N     0.10720   0.18290   0.29060   0.00000  Uiso   1.00
N4     N     0.27770   0.06660   0.31350   0.00000  Uiso   1.00
H5     H     0.33730   0.02590   0.33500   0.00000  Uiso   1.00
N6     N     0.83680   0.83850   0.18470   0.00000  Uiso   1.00
N7     N     0.03180   0.86880   0.15920   0.00000  Uiso   1.00
H8     H     0.11540   0.87930   0.16200   0.00000  Uiso   1.00
O9     O     0.65870   0.61180   0.18420   0.00000  Uiso   1.00
O10    O     0.77170   0.44270   0.19930   0.00000  Uiso   1.00
O11    O     0.76920   0.69410   0.29100   0.00000  Uiso   1.00
O12    O     0.86700   0.52080   0.31040   0.00000  Uiso   1.00
O13    O     0.42770   0.93790   0.24820   0.00000  Uiso   1.00
O14    O     0.31370   0.98460   0.16020   0.00000  Uiso   1.00
O15    O     0.12430   0.15970   0.13110   0.00000  Uiso   1.00
O16    O     0.97550   0.24190   0.18240   0.00000  Uiso   1.00
O17    O     0.93860   0.86590   0.99850   0.00000  Uiso   1.00
O18    O     0.12540   0.91140   0.05440   0.00000  Uiso   1.00
O19    O     0.67970   0.87210   0.03220   0.00000  Uiso   1.00
O20    O     0.59770   0.82260   0.11620   0.00000  Uiso   1.00
O21    O     0.39420   0.91910   0.03340   0.00000  Uiso   1.00
O22    O     0.48730   0.14180   0.09810   0.00000  Uiso   1.00
O23    O     0.27240   0.30800   0.06010   0.00000  Uiso   1.00
C24    C     0.73480   0.54480   0.21440   0.00000  Uiso   1.00
C25    C     0.79580   0.59120   0.27750   0.00000  Uiso   1.00
C26    C     0.34000   0.99270   0.21640   0.00000  Uiso   1.00
C27    C     0.25950   0.07030   0.25230   0.00000  Uiso   1.00
C28    C     0.18810   0.13640   0.33580   0.00000  Uiso   1.00
C29    C     0.18020   0.15160   0.40170   0.00000  Uiso   1.00
H30    H     0.10950   0.20470   0.40730   0.00000  Uiso   1.00
H31    H     0.26140   0.18410   0.42090   0.00000  Uiso   1.00
H32    H     0.16480   0.07600   0.41940   0.00000  Uiso   1.00
C33    C     0.14990   0.14410   0.23820   0.00000  Uiso   1.00
C34    C     0.08060   0.18500   0.17970   0.00000  Uiso   1.00
C35    C     0.00710   0.88530   0.04850   0.00000  Uiso   1.00
C36    C     0.94910   0.86950   0.10640   0.00000  Uiso   1.00
C37    C     0.96450   0.84950   0.20630   0.00000  Uiso   1.00
C38    C     0.02400   0.84160   0.26910   0.00000  Uiso   1.00
H39    H     0.11730   0.85270   0.27110   0.00000  Uiso   1.00
H40    H     0.98770   0.90190   0.29260   0.00000  Uiso   1.00
H41    H     0.00630   0.76490   0.28510   0.00000  Uiso   1.00
C42    C     0.82620   0.85010   0.12300   0.00000  Uiso   1.00
C43    C     0.69380   0.84790   0.08730   0.00000  Uiso   1.00
Sm44   Sm    0.88992   0.31166   0.27449   0.00000  Uiso   1.00
Sm45   Sm    0.23977   0.58515   0.43583   0.00000  Uiso   1.00
N46    N     0.39280   0.68290   0.20940   0.00000  Uiso   1.00
N47    N     0.22230   0.56660   0.18650   0.00000  Uiso   1.00
H48    H     0.16270   0.52590   0.16500   0.00000  Uiso   1.00
N49    N     0.66320   0.33850   0.31530   0.00000  Uiso   1.00
N50    N     0.46820   0.36880   0.34080   0.00000  Uiso   1.00
H51    H     0.38460   0.37930   0.33800   0.00000  Uiso   1.00
O52    O     0.84130   0.11180   0.31580   0.00000  Uiso   1.00
O53    O     0.72830   0.94270   0.30070   0.00000  Uiso   1.00
O54    O     0.73080   0.19410   0.20900   0.00000  Uiso   1.00
O55    O     0.63300   0.02080   0.18960   0.00000  Uiso   1.00
O56    O     0.07230   0.43790   0.25180   0.00000  Uiso   1.00
O57    O     0.18630   0.48460   0.33980   0.00000  Uiso   1.00
O58    O     0.37570   0.65970   0.36890   0.00000  Uiso   1.00
O59    O     0.52450   0.74190   0.31760   0.00000  Uiso   1.00
O60    O     0.56140   0.36590   0.50150   0.00000  Uiso   1.00
O61    O     0.37460   0.41140   0.44560   0.00000  Uiso   1.00
O62    O     0.82030   0.37210   0.46780   0.00000  Uiso   1.00
O63    O     0.90230   0.32260   0.38380   0.00000  Uiso   1.00
O64    O     0.10580   0.41910   0.46660   0.00000  Uiso   1.00
O65    O     0.01270   0.64180   0.40190   0.00000  Uiso   1.00
O66    O     0.22760   0.80800   0.43990   0.00000  Uiso   1.00
C67    C     0.76520   0.04480   0.28560   0.00000  Uiso   1.00
C68    C     0.70420   0.09120   0.22250   0.00000  Uiso   1.00
C69    C     0.16000   0.49270   0.28360   0.00000  Uiso   1.00
C70    C     0.24050   0.57030   0.24770   0.00000  Uiso   1.00
C71    C     0.31190   0.63640   0.16420   0.00000  Uiso   1.00
C72    C     0.31980   0.65160   0.09830   0.00000  Uiso   1.00
H73    H     0.39050   0.70470   0.09270   0.00000  Uiso   1.00
H74    H     0.23860   0.68410   0.07910   0.00000  Uiso   1.00
H75    H     0.33520   0.57600   0.08060   0.00000  Uiso   1.00
C76    C     0.35010   0.64410   0.26180   0.00000  Uiso   1.00
C77    C     0.41940   0.68500   0.32030   0.00000  Uiso   1.00
C78    C     0.49290   0.38530   0.45150   0.00000  Uiso   1.00
C79    C     0.55090   0.36950   0.39360   0.00000  Uiso   1.00
C80    C     0.53550   0.34950   0.29370   0.00000  Uiso   1.00
C81    C     0.47600   0.34160   0.23090   0.00000  Uiso   1.00
H82    H     0.38270   0.35270   0.22890   0.00000  Uiso   1.00
H83    H     0.51230   0.40190   0.20740   0.00000  Uiso   1.00
H84    H     0.49370   0.26490   0.21490   0.00000  Uiso   1.00
C85    C     0.67380   0.35010   0.37700   0.00000  Uiso   1.00
C86    C     0.80620   0.34790   0.41270   0.00000  Uiso   1.00
Sm87   Sm    0.38992   0.18834   0.77449   0.00000  Uiso   1.00
Sm88   Sm    0.73977   0.91485   0.93583   0.00000  Uiso   1.00
N89    N     0.89280   0.81710   0.70940   0.00000  Uiso   1.00
N90    N     0.72230   0.93340   0.68650   0.00000  Uiso   1.00
H91    H     0.66270   0.97410   0.66500   0.00000  Uiso   1.00
N92    N     0.16320   0.16150   0.81530   0.00000  Uiso   1.00
N93    N     0.96820   0.13120   0.84080   0.00000  Uiso   1.00
H94    H     0.88460   0.12070   0.83800   0.00000  Uiso   1.00
O95    O     0.34130   0.38820   0.81580   0.00000  Uiso   1.00
O96    O     0.22830   0.55730   0.80070   0.00000  Uiso   1.00
O97    O     0.23080   0.30590   0.70900   0.00000  Uiso   1.00
O98    O     0.13300   0.47920   0.68960   0.00000  Uiso   1.00
O99    O     0.57230   0.06210   0.75180   0.00000  Uiso   1.00
O100   O     0.68630   0.01540   0.83980   0.00000  Uiso   1.00
O101   O     0.87570   0.84030   0.86890   0.00000  Uiso   1.00
O102   O     0.02450   0.75810   0.81760   0.00000  Uiso   1.00
O103   O     0.06140   0.13410   0.00150   0.00000  Uiso   1.00
O104   O     0.87460   0.08860   0.94560   0.00000  Uiso   1.00
O105   O     0.32030   0.12790   0.96780   0.00000  Uiso   1.00
O106   O     0.40230   0.17740   0.88380   0.00000  Uiso   1.00
O107   O     0.60580   0.08090   0.96660   0.00000  Uiso   1.00
O108   O     0.51270   0.85820   0.90190   0.00000  Uiso   1.00
O109   O     0.72760   0.69200   0.93990   0.00000  Uiso   1.00
C110   C     0.26520   0.45520   0.78560   0.00000  Uiso   1.00
C111   C     0.20420   0.40880   0.72250   0.00000  Uiso   1.00
C112   C     0.66000   0.00730   0.78360   0.00000  Uiso   1.00
C113   C     0.74050   0.92970   0.74770   0.00000  Uiso   1.00
C114   C     0.81190   0.86360   0.66420   0.00000  Uiso   1.00
C115   C     0.81980   0.84840   0.59830   0.00000  Uiso   1.00
H116   H     0.89050   0.79530   0.59270   0.00000  Uiso   1.00
H117   H     0.73860   0.81590   0.57910   0.00000  Uiso   1.00
H118   H     0.83520   0.92400   0.58060   0.00000  Uiso   1.00
C119   C     0.85010   0.85590   0.76180   0.00000  Uiso   1.00
C120   C     0.91940   0.81500   0.82030   0.00000  Uiso   1.00
C121   C     0.99290   0.11470   0.95150   0.00000  Uiso   1.00
C122   C     0.05090   0.13050   0.89360   0.00000  Uiso   1.00
C123   C     0.03550   0.15050   0.79370   0.00000  Uiso   1.00
C124   C     0.97600   0.15840   0.73090   0.00000  Uiso   1.00
H125   H     0.88270   0.14730   0.72890   0.00000  Uiso   1.00
H126   H     0.01230   0.09810   0.70740   0.00000  Uiso   1.00
H127   H     0.99370   0.23510   0.71490   0.00000  Uiso   1.00
C128   C     0.17380   0.14990   0.87700   0.00000  Uiso   1.00
C129   C     0.30620   0.15210   0.91270   0.00000  Uiso   1.00
Sm130  Sm    0.11008   0.68834   0.72551   0.00000  Uiso   1.00
Sm131  Sm    0.76023   0.41485   0.56417   0.00000  Uiso   1.00
N132   N     0.60720   0.31710   0.79060   0.00000  Uiso   1.00
N133   N     0.77770   0.43340   0.81350   0.00000  Uiso   1.00
H134   H     0.83730   0.47410   0.83500   0.00000  Uiso   1.00
N135   N     0.33680   0.66150   0.68470   0.00000  Uiso   1.00
N136   N     0.53180   0.63120   0.65920   0.00000  Uiso   1.00
H137   H     0.61540   0.62070   0.66200   0.00000  Uiso   1.00
O138   O     0.15870   0.88820   0.68420   0.00000  Uiso   1.00
O139   O     0.27170   0.05730   0.69930   0.00000  Uiso   1.00
O140   O     0.26920   0.80590   0.79100   0.00000  Uiso   1.00
O141   O     0.36700   0.97920   0.81040   0.00000  Uiso   1.00
O142   O     0.92770   0.56210   0.74820   0.00000  Uiso   1.00
O143   O     0.81370   0.51540   0.66020   0.00000  Uiso   1.00
O144   O     0.62430   0.34030   0.63110   0.00000  Uiso   1.00
O145   O     0.47550   0.25810   0.68240   0.00000  Uiso   1.00
O146   O     0.43860   0.63410   0.49850   0.00000  Uiso   1.00
O147   O     0.62540   0.58860   0.55440   0.00000  Uiso   1.00
O148   O     0.17970   0.62790   0.53220   0.00000  Uiso   1.00
O149   O     0.09770   0.67740   0.61620   0.00000  Uiso   1.00
O150   O     0.89420   0.58090   0.53340   0.00000  Uiso   1.00
O151   O     0.98730   0.35820   0.59810   0.00000  Uiso   1.00
O152   O     0.77240   0.19200   0.56010   0.00000  Uiso   1.00
C153   C     0.23480   0.95520   0.71440   0.00000  Uiso   1.00
C154   C     0.29580   0.90880   0.77750   0.00000  Uiso   1.00
C155   C     0.84000   0.50730   0.71640   0.00000  Uiso   1.00
C156   C     0.75950   0.42970   0.75230   0.00000  Uiso   1.00
C157   C     0.68810   0.36360   0.83580   0.00000  Uiso   1.00
C158   C     0.68020   0.34840   0.90170   0.00000  Uiso   1.00
H159   H     0.60950   0.29530   0.90730   0.00000  Uiso   1.00
H160   H     0.76140   0.31590   0.92090   0.00000  Uiso   1.00
H161   H     0.66480   0.42400   0.91940   0.00000  Uiso   1.00
C162   C     0.64990   0.35590   0.73820   0.00000  Uiso   1.00
C163   C     0.58060   0.31500   0.67970   0.00000  Uiso   1.00
C164   C     0.50710   0.61470   0.54850   0.00000  Uiso   1.00
C165   C     0.44910   0.63050   0.60640   0.00000  Uiso   1.00
C166   C     0.46450   0.65050   0.70630   0.00000  Uiso   1.00
C167   C     0.52400   0.65840   0.76910   0.00000  Uiso   1.00
H168   H     0.61730   0.64730   0.77110   0.00000  Uiso   1.00
H169   H     0.48770   0.59810   0.79260   0.00000  Uiso   1.00
H170   H     0.50630   0.73510   0.78510   0.00000  Uiso   1.00
C171   C     0.32620   0.64990   0.62300   0.00000  Uiso   1.00
C172   C     0.19380   0.65210   0.58730   0.00000  Uiso   1.00
loop_
_geom_bond_atom_site_label_1
_geom_bond_atom_site_label_2
_geom_bond_distance
_geom_bond_site_symmetry_2
_ccdc_geom_bond_type
Sm1    N6      2.614   .     S
Sm1    O9      2.505   .     S
Sm1    O11     2.439   .     S
Sm1    O13     2.451   .     S
Sm1    O20     2.417   .     S
Sm1    N46     2.646   .     S
Sm1    O53     2.437   .     S
Sm1    O55     2.508   1_565 S
Sm1    O59     2.451   .     S
Sm2    O14     2.416   1_545 S
Sm2    O15     2.316   .     S
Sm2    O21     2.467   1_545 S
Sm2    O22     2.443   .     S
Sm2    O23     2.516   .     S
Sm2    O103    2.387   .     S
Sm2    O18     2.391   1_545 S
Sm2    O105    2.347   1_554 S
N3     C28     1.328   .     S
N3     C33     1.364   .     S
N3     Sm44    2.646   1_455 S
N4     H5      0.860   .     S
N4     C27     1.349   .     S
N4     C28     1.349   .     S
N6     C37     1.344   .     S
N6     C42     1.367   .     S
N7     H8      0.860   .     S
N7     C36     1.359   1_455 S
N7     C37     1.339   1_455 S
O9     C24     1.225   .     S
O10    C24     1.269   .     S
O10    Sm44    2.437   .     S
O11    C25     1.236   .     S
O12    C25     1.251   .     S
O12    Sm44    2.508   .     S
O13    C26     1.238   .     S
O14    Sm2     2.416   1_565 S
O14    C26     1.247   .     S
O15    C34     1.251   .     S
O16    C34     1.262   1_655 S
O16    Sm44    2.451   .     S
O17    C35     1.257   1_656 S
O17    Sm88    2.387   .     S
O18    C35     1.239   .     S
O18    Sm2     2.391   1_565 S
O19    C43     1.244   .     S
O19    Sm88    2.347   1_554 S
O20    C43     1.273   .     S
O21    Sm2     2.467   1_565 S
C24    C25     1.553   .     S
C26    C27     1.498   1_565 S
C27    C26     1.498   1_545 S
C27    C33     1.402   .     S
C28    C29     1.485   .     S
C29    H30     0.960   .     S
C29    H31     0.960   .     S
C29    H32     0.959   .     S
C33    C34     1.475   .     S
C34    O16     1.262   1_455 S
C35    O17     1.257   1_454 S
C35    C36     1.492   1_455 S
C36    C35     1.492   1_655 S
C36    N7      1.359   1_655 S
C36    C42     1.373   .     S
C37    N7      1.339   1_655 S
C37    C38     1.454   1_655 S
C38    C37     1.454   1_455 S
C38    H39     0.961   .     S
C38    H40     0.959   1_455 S
C38    H41     0.960   .     S
H40    C38     0.959   1_655 S
C42    C43     1.486   .     S
Sm44   N49     2.614   .     S
Sm44   O52     2.505   .     S
Sm44   O54     2.439   .     S
Sm44   O56     2.451   1_655 S
Sm44   O63     2.417   .     S
Sm44   N3      2.646   1_655 S
Sm45   O57     2.416   .     S
Sm45   O58     2.316   .     S
Sm45   O64     2.467   .     S
Sm45   O65     2.443   .     S
Sm45   O66     2.516   .     S
Sm45   O146    2.387   .     S
Sm45   O61     2.391   .     S
Sm45   O148    2.347   .     S
N46    C71     1.328   .     S
N46    C76     1.364   .     S
N47    H48     0.860   .     S
N47    C70     1.349   .     S
N47    C71     1.349   .     S
N49    C80     1.344   .     S
N49    C85     1.367   .     S
N50    H51     0.860   .     S
N50    C79     1.359   .     S
N50    C80     1.339   .     S
O52    C67     1.225   .     S
O53    C67     1.269   1_565 S
O54    C68     1.236   .     S
O55    C68     1.251   .     S
O55    Sm1     2.508   1_545 S
O56    Sm44    2.451   1_455 S
O56    C69     1.238   .     S
O57    C69     1.247   .     S
O58    C77     1.251   .     S
O59    C77     1.262   .     S
O60    C78     1.257   .     S
O60    Sm131   2.387   .     S
O61    C78     1.239   .     S
O62    C86     1.244   .     S
O62    Sm131   2.347   .     S
O63    C86     1.273   .     S
C67    O53     1.269   1_545 S
C67    C68     1.553   .     S
C69    C70     1.498   .     S
C70    C76     1.402   .     S
C71    C72     1.485   .     S
C72    H73     0.960   .     S
C72    H74     0.960   .     S
C72    H75     0.959   .     S
C76    C77     1.475   .     S
C78    C79     1.492   .     S
C79    C85     1.373   .     S
C80    C81     1.454   .     S
C81    H82     0.961   .     S
C81    H83     0.959   .     S
C81    H84     0.960   .     S
C85    C86     1.486   .     S
Sm87   N92     2.614   .     S
Sm87   O95     2.505   .     S
Sm87   O97     2.439   .     S
Sm87   O99     2.451   .     S
Sm87   O106    2.417   .     S
Sm87   N132    2.646   .     S
Sm87   O139    2.437   .     S
Sm87   O141    2.508   1_545 S
Sm87   O145    2.451   .     S
Sm88   O100    2.416   1_565 S
Sm88   O101    2.316   .     S
Sm88   O107    2.467   1_565 S
Sm88   O108    2.443   .     S
Sm88   O109    2.516   .     S
Sm88   O104    2.391   1_565 S
Sm88   O19     2.347   1_556 S
N89    C114    1.328   .     S
N89    C119    1.364   .     S
N89    Sm130   2.646   1_655 S
N90    H91     0.860   .     S
N90    C113    1.349   .     S
N90    C114    1.349   .     S
N92    C123    1.344   .     S
N92    C128    1.367   .     S
N93    H94     0.860   .     S
N93    C122    1.359   1_655 S
N93    C123    1.339   1_655 S
O95    C110    1.225   .     S
O96    C110    1.269   .     S
O96    Sm130   2.437   .     S
O97    C111    1.236   .     S
O98    C111    1.251   .     S
O98    Sm130   2.508   .     S
O99    C112    1.238   .     S
O100   Sm88    2.416   1_545 S
O100   C112    1.247   .     S
O101   C120    1.251   .     S
O102   C120    1.262   1_455 S
O102   Sm130   2.451   .     S
O103   C121    1.257   1_454 S
O104   C121    1.239   .     S
O104   Sm88    2.391   1_545 S
O105   C129    1.244   .     S
O105   Sm2     2.347   1_556 S
O106   C129    1.273   .     S
O107   Sm88    2.467   1_545 S
C110   C111    1.553   .     S
C112   C113    1.498   1_545 S
C113   C112    1.498   1_565 S
C113   C119    1.402   .     S
C114   C115    1.485   .     S
C115   H116    0.960   .     S
C115   H117    0.960   .     S
C115   H118    0.959   .     S
C119   C120    1.475   .     S
C120   O102    1.262   1_655 S
C121   O103    1.257   1_656 S
C121   C122    1.492   1_655 S
C122   C121    1.492   1_455 S
C122   N93     1.359   1_455 S
C122   C128    1.373   .     S
C123   N93     1.339   1_455 S
C123   C124    1.454   1_455 S
C124   C123    1.454   1_655 S
C124   H125    0.961   .     S
C124   H126    0.959   1_655 S
C124   H127    0.960   .     S
H126   C124    0.959   1_455 S
C128   C129    1.486   .     S
Sm130  N135    2.614   .     S
Sm130  O138    2.505   .     S
Sm130  O140    2.439   .     S
Sm130  O142    2.451   1_455 S
Sm130  O149    2.417   .     S
Sm130  N89     2.646   1_455 S
Sm131  O143    2.416   .     S
Sm131  O144    2.316   .     S
Sm131  O150    2.467   .     S
Sm131  O151    2.443   .     S
Sm131  O152    2.516   .     S
Sm131  O147    2.391   .     S
N132   C157    1.328   .     S
N132   C162    1.364   .     S
N133   H134    0.860   .     S
N133   C156    1.349   .     S
N133   C157    1.349   .     S
N135   C166    1.344   .     S
N135   C171    1.367   .     S
N136   H137    0.860   .     S
N136   C165    1.359   .     S
N136   C166    1.339   .     S
O138   C153    1.225   .     S
O139   C153    1.269   1_545 S
O140   C154    1.236   .     S
O141   C154    1.251   .     S
O141   Sm87    2.508   1_565 S
O142   Sm130   2.451   1_655 S
O142   C155    1.238   .     S
O143   C155    1.247   .     S
O144   C163    1.251   .     S
O145   C163    1.262   .     S
O146   C164    1.257   .     S
O147   C164    1.239   .     S
O148   C172    1.244   .     S
O149   C172    1.273   .     S
C153   O139    1.269   1_565 S
C153   C154    1.553   .     S
C155   C156    1.498   .     S
C156   C162    1.402   .     S
C157   C158    1.485   .     S
C158   H159    0.960   .     S
C158   H160    0.960   .     S
C158   H161    0.959   .     S
C162   C163    1.475   .     S
C164   C165    1.492   .     S
C165   C171    1.373   .     S
C166   C167    1.454   .     S
C167   H168    0.961   .     S
C167   H169    0.959   .     S
C167   H170    0.960   .     S
C171   C172    1.486   .     S
