data_FATKUI_FSR
_audit_creation_date              2024-06-11
_audit_creation_method            'Materials Studio'
_symmetry_space_group_name_H-M    'P1'
_symmetry_Int_Tables_number       1
_symmetry_cell_setting            triclinic
loop_
_symmetry_equiv_pos_as_xyz
  x,y,z
_cell_length_a                    10.4160
_cell_length_b                    11.4400
_cell_length_c                    22.4570
_cell_angle_alpha                 90.0000
_cell_angle_beta                  97.6950
_cell_angle_gamma                 90.0000
loop_
_atom_site_label
_atom_site_type_symbol
_atom_site_fract_x
_atom_site_fract_y
_atom_site_fract_z
_atom_site_U_iso_or_equiv
_atom_site_adp_type
_atom_site_occupancy
Ce1    Ce    0.60772   0.69298   0.22519   0.00000  Uiso   1.00
Ce2    Ce    0.26312   0.42000   0.06505   0.00000  Uiso   1.00
N3     N     0.03120   0.63410   0.15878   0.00000  Uiso   1.00
H4     H     0.11370   0.62440   0.16210   0.00000  Uiso   1.00
N5     N     0.83790   0.66400   0.18428   0.00000  Uiso   1.00
N6     N     0.11130   0.32220   0.29129   0.00000  Uiso   1.00
N7     N     0.27740   0.43910   0.31514   0.00000  Uiso   1.00
H8     H     0.33640   0.47880   0.33680   0.00000  Uiso   1.00
C9     C     0.00420   0.61720   0.04875   0.00000  Uiso   1.00
C10    C     0.94760   0.63130   0.10576   0.00000  Uiso   1.00
C11    C     0.82700   0.64980   0.12250   0.00000  Uiso   1.00
C12    C     0.69580   0.65170   0.08696   0.00000  Uiso   1.00
C13    C     0.96270   0.65450   0.20454   0.00000  Uiso   1.00
C14    C     0.02440   0.66340   0.26847   0.00000  Uiso   1.00
H15    H     0.97700   0.71810   0.28950   0.00000  Uiso   1.00
H16    H     0.11220   0.68980   0.26960   0.00000  Uiso   1.00
H17    H     0.02380   0.58810   0.28730   0.00000  Uiso   1.00
C18    C     0.08340   0.32230   0.18070   0.00000  Uiso   1.00
C19    C     0.15400   0.36210   0.23924   0.00000  Uiso   1.00
C20    C     0.25830   0.43570   0.25315   0.00000  Uiso   1.00
C21    C     0.33960   0.51270   0.21949   0.00000  Uiso   1.00
C22    C     0.18910   0.37050   0.33626   0.00000  Uiso   1.00
C23    C     0.18180   0.35360   0.40156   0.00000  Uiso   1.00
H24    H     0.09440   0.36580   0.40930   0.00000  Uiso   1.00
H25    H     0.23800   0.40850   0.42440   0.00000  Uiso   1.00
H26    H     0.20830   0.27550   0.41300   0.00000  Uiso   1.00
C27    C     0.70390   0.41430   0.22324   0.00000  Uiso   1.00
C28    C     0.76560   0.46030   0.28584   0.00000  Uiso   1.00
O29    O     0.12320   0.59270   0.05490   0.00000  Uiso   1.00
O30    O     0.93670   0.63380   0.99950   0.00000  Uiso   1.00
O31    O     0.60200   0.68066   0.11432   0.00000  Uiso   1.00
O32    O     0.68080   0.62290   0.03311   0.00000  Uiso   1.00
O33    O     0.97940   0.26840   0.18241   0.00000  Uiso   1.00
O34    O     0.12910   0.34120   0.13337   0.00000  Uiso   1.00
O35    O     0.31490   0.52170   0.16336   0.00000  Uiso   1.00
O36    O     0.42620   0.56700   0.25167   0.00000  Uiso   1.00
O37    O     0.63120   0.48350   0.19113   0.00000  Uiso   1.00
O38    O     0.73020   0.31235   0.20982   0.00000  Uiso   1.00
O39    O     0.84320   0.39364   0.31616   0.00000  Uiso   1.00
O40    O     0.73290   0.56090   0.30085   0.00000  Uiso   1.00
O41    O     0.49450   0.36420   0.09788   0.00000  Uiso   1.00
O42    O     0.39400   0.58900   0.03247   0.00000  Uiso   1.00
O43    O     0.28040   0.19760   0.06130   0.00000  Uiso   1.00
H44    H     0.52400   0.29500   0.09600   0.00000  Uiso   1.00
H45    H     0.54300   0.39900   0.12600   0.00000  Uiso   1.00
H46    H     0.46000   0.61800   0.05330   0.00000  Uiso   1.00
H47    H     0.39000   0.61400   0.99680   0.00000  Uiso   1.00
H48    H     0.34100   0.15900   0.04800   0.00000  Uiso   1.00
H49    H     0.23100   0.14950   0.07600   0.00000  Uiso   1.00
Ce50   Ce    0.89228   0.19298   0.27481   0.00000  Uiso   1.00
Ce51   Ce    0.23688   0.92000   0.43495   0.00000  Uiso   1.00
N52    N     0.46880   0.13410   0.34122   0.00000  Uiso   1.00
H53    H     0.38630   0.12440   0.33790   0.00000  Uiso   1.00
N54    N     0.66210   0.16400   0.31572   0.00000  Uiso   1.00
N55    N     0.38870   0.82220   0.20871   0.00000  Uiso   1.00
N56    N     0.22260   0.93910   0.18486   0.00000  Uiso   1.00
H57    H     0.16360   0.97880   0.16320   0.00000  Uiso   1.00
C58    C     0.49580   0.11720   0.45125   0.00000  Uiso   1.00
C59    C     0.55240   0.13130   0.39424   0.00000  Uiso   1.00
C60    C     0.67300   0.14980   0.37750   0.00000  Uiso   1.00
C61    C     0.80420   0.15170   0.41304   0.00000  Uiso   1.00
C62    C     0.53730   0.15450   0.29546   0.00000  Uiso   1.00
C63    C     0.47560   0.16340   0.23153   0.00000  Uiso   1.00
H64    H     0.52300   0.21810   0.21050   0.00000  Uiso   1.00
H65    H     0.38780   0.18980   0.23040   0.00000  Uiso   1.00
H66    H     0.47620   0.08810   0.21270   0.00000  Uiso   1.00
C67    C     0.41660   0.82230   0.31930   0.00000  Uiso   1.00
C68    C     0.34600   0.86210   0.26076   0.00000  Uiso   1.00
C69    C     0.24170   0.93570   0.24685   0.00000  Uiso   1.00
C70    C     0.16040   0.01270   0.28051   0.00000  Uiso   1.00
C71    C     0.31090   0.87050   0.16374   0.00000  Uiso   1.00
C72    C     0.31820   0.85360   0.09844   0.00000  Uiso   1.00
H73    H     0.40560   0.86580   0.09070   0.00000  Uiso   1.00
H74    H     0.26200   0.90850   0.07560   0.00000  Uiso   1.00
H75    H     0.29170   0.77550   0.08700   0.00000  Uiso   1.00
C76    C     0.79610   0.91430   0.27676   0.00000  Uiso   1.00
C77    C     0.73440   0.96030   0.21416   0.00000  Uiso   1.00
O78    O     0.37680   0.09270   0.44510   0.00000  Uiso   1.00
O79    O     0.56330   0.13380   0.50050   0.00000  Uiso   1.00
O80    O     0.89800   0.18066   0.38568   0.00000  Uiso   1.00
O81    O     0.81920   0.12290   0.46689   0.00000  Uiso   1.00
O82    O     0.52060   0.76840   0.31759   0.00000  Uiso   1.00
O83    O     0.37090   0.84120   0.36663   0.00000  Uiso   1.00
O84    O     0.18510   0.02170   0.33664   0.00000  Uiso   1.00
O85    O     0.07380   0.06700   0.24833   0.00000  Uiso   1.00
O86    O     0.86880   0.98350   0.30887   0.00000  Uiso   1.00
O87    O     0.76980   0.81235   0.29018   0.00000  Uiso   1.00
O88    O     0.65680   0.89364   0.18384   0.00000  Uiso   1.00
O89    O     0.76710   0.06090   0.19915   0.00000  Uiso   1.00
O90    O     0.00550   0.86420   0.40212   0.00000  Uiso   1.00
O91    O     0.10600   0.08900   0.46753   0.00000  Uiso   1.00
O92    O     0.21960   0.69760   0.43870   0.00000  Uiso   1.00
H93    H     0.97600   0.79500   0.40400   0.00000  Uiso   1.00
H94    H     0.95700   0.89900   0.37400   0.00000  Uiso   1.00
H95    H     0.04000   0.11800   0.44670   0.00000  Uiso   1.00
H96    H     0.11000   0.11400   0.50320   0.00000  Uiso   1.00
H97    H     0.15900   0.65900   0.45200   0.00000  Uiso   1.00
H98    H     0.26900   0.64950   0.42400   0.00000  Uiso   1.00
Ce99   Ce    0.39228   0.30702   0.77481   0.00000  Uiso   1.00
Ce100  Ce    0.73688   0.58000   0.93495   0.00000  Uiso   1.00
N101   N     0.96880   0.36590   0.84122   0.00000  Uiso   1.00
H102   H     0.88630   0.37560   0.83790   0.00000  Uiso   1.00
N103   N     0.16210   0.33600   0.81572   0.00000  Uiso   1.00
N104   N     0.88870   0.67780   0.70871   0.00000  Uiso   1.00
N105   N     0.72260   0.56090   0.68486   0.00000  Uiso   1.00
H106   H     0.66360   0.52120   0.66320   0.00000  Uiso   1.00
C107   C     0.99580   0.38280   0.95125   0.00000  Uiso   1.00
C108   C     0.05240   0.36870   0.89424   0.00000  Uiso   1.00
C109   C     0.17300   0.35020   0.87750   0.00000  Uiso   1.00
C110   C     0.30420   0.34830   0.91304   0.00000  Uiso   1.00
C111   C     0.03730   0.34550   0.79546   0.00000  Uiso   1.00
C112   C     0.97560   0.33660   0.73153   0.00000  Uiso   1.00
H113   H     0.02300   0.28190   0.71050   0.00000  Uiso   1.00
H114   H     0.88780   0.31020   0.73040   0.00000  Uiso   1.00
H115   H     0.97620   0.41190   0.71270   0.00000  Uiso   1.00
C116   C     0.91660   0.67770   0.81930   0.00000  Uiso   1.00
C117   C     0.84600   0.63790   0.76076   0.00000  Uiso   1.00
C118   C     0.74170   0.56430   0.74685   0.00000  Uiso   1.00
C119   C     0.66040   0.48730   0.78051   0.00000  Uiso   1.00
C120   C     0.81090   0.62950   0.66374   0.00000  Uiso   1.00
C121   C     0.81820   0.64640   0.59844   0.00000  Uiso   1.00
H122   H     0.90560   0.63420   0.59070   0.00000  Uiso   1.00
H123   H     0.76200   0.59150   0.57560   0.00000  Uiso   1.00
H124   H     0.79170   0.72450   0.58700   0.00000  Uiso   1.00
C125   C     0.29610   0.58570   0.77676   0.00000  Uiso   1.00
C126   C     0.23440   0.53970   0.71416   0.00000  Uiso   1.00
O127   O     0.87680   0.40730   0.94510   0.00000  Uiso   1.00
O128   O     0.06330   0.36620   0.00050   0.00000  Uiso   1.00
O129   O     0.39800   0.31934   0.88568   0.00000  Uiso   1.00
O130   O     0.31920   0.37710   0.96689   0.00000  Uiso   1.00
O131   O     0.02060   0.73160   0.81759   0.00000  Uiso   1.00
O132   O     0.87090   0.65880   0.86663   0.00000  Uiso   1.00
O133   O     0.68510   0.47830   0.83664   0.00000  Uiso   1.00
O134   O     0.57380   0.43300   0.74833   0.00000  Uiso   1.00
O135   O     0.36880   0.51650   0.80887   0.00000  Uiso   1.00
O136   O     0.26980   0.68765   0.79018   0.00000  Uiso   1.00
O137   O     0.15680   0.60636   0.68384   0.00000  Uiso   1.00
O138   O     0.26710   0.43910   0.69915   0.00000  Uiso   1.00
O139   O     0.50550   0.63580   0.90212   0.00000  Uiso   1.00
O140   O     0.60600   0.41100   0.96753   0.00000  Uiso   1.00
O141   O     0.71960   0.80240   0.93870   0.00000  Uiso   1.00
H142   H     0.47600   0.70500   0.90400   0.00000  Uiso   1.00
H143   H     0.45700   0.60100   0.87400   0.00000  Uiso   1.00
H144   H     0.54000   0.38200   0.94670   0.00000  Uiso   1.00
H145   H     0.61000   0.38600   0.00320   0.00000  Uiso   1.00
H146   H     0.65900   0.84100   0.95200   0.00000  Uiso   1.00
H147   H     0.76900   0.85050   0.92400   0.00000  Uiso   1.00
Ce148  Ce    0.10772   0.80702   0.72519   0.00000  Uiso   1.00
Ce149  Ce    0.76312   0.08000   0.56505   0.00000  Uiso   1.00
N150   N     0.53120   0.86590   0.65878   0.00000  Uiso   1.00
H151   H     0.61370   0.87560   0.66210   0.00000  Uiso   1.00
N152   N     0.33790   0.83600   0.68428   0.00000  Uiso   1.00
N153   N     0.61130   0.17780   0.79129   0.00000  Uiso   1.00
N154   N     0.77740   0.06090   0.81514   0.00000  Uiso   1.00
H155   H     0.83640   0.02120   0.83680   0.00000  Uiso   1.00
C156   C     0.50420   0.88280   0.54875   0.00000  Uiso   1.00
C157   C     0.44760   0.86870   0.60576   0.00000  Uiso   1.00
C158   C     0.32700   0.85020   0.62250   0.00000  Uiso   1.00
C159   C     0.19580   0.84830   0.58696   0.00000  Uiso   1.00
C160   C     0.46270   0.84550   0.70454   0.00000  Uiso   1.00
C161   C     0.52440   0.83660   0.76847   0.00000  Uiso   1.00
H162   H     0.47700   0.78190   0.78950   0.00000  Uiso   1.00
H163   H     0.61220   0.81020   0.76960   0.00000  Uiso   1.00
H164   H     0.52380   0.91190   0.78730   0.00000  Uiso   1.00
C165   C     0.58340   0.17770   0.68070   0.00000  Uiso   1.00
C166   C     0.65400   0.13790   0.73924   0.00000  Uiso   1.00
C167   C     0.75830   0.06430   0.75315   0.00000  Uiso   1.00
C168   C     0.83960   0.98730   0.71949   0.00000  Uiso   1.00
C169   C     0.68910   0.12950   0.83626   0.00000  Uiso   1.00
C170   C     0.68180   0.14640   0.90156   0.00000  Uiso   1.00
H171   H     0.59440   0.13420   0.90930   0.00000  Uiso   1.00
H172   H     0.73800   0.09150   0.92440   0.00000  Uiso   1.00
H173   H     0.70830   0.22450   0.91300   0.00000  Uiso   1.00
C174   C     0.20390   0.08570   0.72324   0.00000  Uiso   1.00
C175   C     0.26560   0.03970   0.78584   0.00000  Uiso   1.00
O176   O     0.62320   0.90730   0.55490   0.00000  Uiso   1.00
O177   O     0.43670   0.86620   0.49950   0.00000  Uiso   1.00
O178   O     0.10200   0.81934   0.61432   0.00000  Uiso   1.00
O179   O     0.18080   0.87710   0.53311   0.00000  Uiso   1.00
O180   O     0.47940   0.23160   0.68241   0.00000  Uiso   1.00
O181   O     0.62910   0.15880   0.63337   0.00000  Uiso   1.00
O182   O     0.81490   0.97830   0.66336   0.00000  Uiso   1.00
O183   O     0.92620   0.93300   0.75167   0.00000  Uiso   1.00
O184   O     0.13120   0.01650   0.69113   0.00000  Uiso   1.00
O185   O     0.23020   0.18765   0.70982   0.00000  Uiso   1.00
O186   O     0.34320   0.10636   0.81616   0.00000  Uiso   1.00
O187   O     0.23290   0.93910   0.80085   0.00000  Uiso   1.00
O188   O     0.99450   0.13580   0.59788   0.00000  Uiso   1.00
O189   O     0.89400   0.91100   0.53247   0.00000  Uiso   1.00
O190   O     0.78040   0.30240   0.56130   0.00000  Uiso   1.00
H191   H     0.02400   0.20500   0.59600   0.00000  Uiso   1.00
H192   H     0.04300   0.10100   0.62600   0.00000  Uiso   1.00
H193   H     0.96000   0.88200   0.55330   0.00000  Uiso   1.00
H194   H     0.89000   0.88600   0.49680   0.00000  Uiso   1.00
H195   H     0.84100   0.34100   0.54800   0.00000  Uiso   1.00
H196   H     0.73100   0.35050   0.57600   0.00000  Uiso   1.00
loop_
_geom_bond_atom_site_label_1
_geom_bond_atom_site_label_2
_geom_bond_distance
_geom_bond_site_symmetry_2
_ccdc_geom_bond_type
Ce1    N5      2.700   .     S
Ce1    O31     2.487   .     S
Ce1    O36     2.511   .     S
Ce1    O37     2.537   .     S
Ce1    O40     2.505   .     S
Ce1    N55     2.702   .     S
Ce1    O82     2.525   .     S
Ce1    O87     2.487   .     S
Ce1    O88     2.553   .     S
Ce2    O34     2.385   .     S
Ce2    O35     2.490   .     S
Ce2    O41     2.507   .     S
Ce2    O42     2.530   .     S
Ce2    O43     2.553   .     S
Ce2    O29     2.448   .     S
Ce2    O128    2.450   .     S
Ce2    O130    2.405   1_554 S
N3     H4      0.860   .     S
N3     C10     1.378   1_455 S
N3     C13     1.348   1_455 S
N5     C11     1.386   .     S
N5     C13     1.323   .     S
N6     C19     1.383   .     S
N6     C22     1.328   .     S
N6     Ce50    2.702   1_455 S
N7     H8      0.861   .     S
N7     C20     1.380   .     S
N7     C22     1.343   .     S
C9     C10     1.488   1_455 S
C9     O29     1.260   .     S
C9     O30     1.243   1_454 S
C10    C9      1.488   1_655 S
C10    N3      1.378   1_655 S
C10    C11     1.375   .     S
C11    C12     1.488   .     S
C12    O32     1.243   .     S
C12    O31     1.266   .     S
C13    N3      1.348   1_655 S
C13    C14     1.496   1_655 S
C14    C13     1.496   1_455 S
C14    H15     0.960   1_455 S
C14    H16     0.960   .     S
C14    H17     0.960   .     S
H15    C14     0.960   1_655 S
C18    C19     1.489   .     S
C18    O33     1.252   1_455 S
C18    O34     1.240   .     S
C19    C20     1.377   .     S
C20    C21     1.495   .     S
C21    O35     1.257   .     S
C21    O36     1.244   .     S
C22    C23     1.491   .     S
C23    H24     0.960   .     S
C23    H25     0.959   .     S
C23    H26     0.960   .     S
C27    C28     1.557   .     S
C27    O38     1.244   .     S
C27    O37     1.255   .     S
C28    O39     1.245   .     S
C28    O40     1.259   .     S
O30    C9      1.243   1_656 S
O30    Ce100   2.450   .     S
O32    Ce100   2.405   1_554 S
O33    C18     1.252   1_655 S
O33    Ce50    2.525   .     S
O38    Ce50    2.487   .     S
O39    Ce50    2.553   .     S
O41    H44     0.852   .     S
O41    H45     0.853   .     S
O42    H46     0.846   .     S
O42    H47     0.846   1_554 S
O43    H48     0.856   .     S
O43    H49     0.850   .     S
H47    O42     0.846   1_556 S
Ce50   N54     2.700   .     S
Ce50   O80     2.487   .     S
Ce50   O85     2.511   1_655 S
Ce50   O86     2.537   1_545 S
Ce50   O89     2.505   .     S
Ce50   N6      2.702   1_655 S
Ce51   O83     2.385   .     S
Ce51   O84     2.490   1_565 S
Ce51   O90     2.507   .     S
Ce51   O91     2.530   1_565 S
Ce51   O92     2.553   .     S
Ce51   O78     2.448   1_565 S
Ce51   O177    2.450   .     S
Ce51   O179    2.405   .     S
N52    H53     0.860   .     S
N52    C59     1.378   .     S
N52    C62     1.348   .     S
N54    C60     1.386   .     S
N54    C62     1.323   .     S
N55    C68     1.383   .     S
N55    C71     1.328   .     S
N56    H57     0.861   .     S
N56    C69     1.380   .     S
N56    C71     1.343   .     S
C58    C59     1.488   .     S
C58    O78     1.260   .     S
C58    O79     1.243   .     S
C59    C60     1.375   .     S
C60    C61     1.488   .     S
C61    O81     1.243   .     S
C61    O80     1.266   .     S
C62    C63     1.496   .     S
C63    H64     0.960   .     S
C63    H65     0.960   .     S
C63    H66     0.960   .     S
C67    C68     1.489   .     S
C67    O82     1.252   .     S
C67    O83     1.240   .     S
C68    C69     1.377   .     S
C69    C70     1.495   1_565 S
C70    C69     1.495   1_545 S
C70    O84     1.257   .     S
C70    O85     1.244   .     S
C71    C72     1.491   .     S
C72    H73     0.960   .     S
C72    H74     0.959   .     S
C72    H75     0.960   .     S
C76    C77     1.557   .     S
C76    O87     1.244   .     S
C76    O86     1.255   .     S
C77    O88     1.245   .     S
C77    O89     1.259   1_565 S
O78    Ce51    2.448   1_545 S
O79    Ce149   2.450   .     S
O81    Ce149   2.405   .     S
O84    Ce51    2.490   1_545 S
O85    Ce50    2.511   1_455 S
O86    Ce50    2.537   1_565 S
O89    C77     1.259   1_545 S
O90    H93     0.852   1_455 S
O90    H94     0.853   1_455 S
O91    Ce51    2.530   1_545 S
O91    H95     0.846   .     S
O91    H96     0.846   .     S
O92    H97     0.856   .     S
O92    H98     0.850   .     S
H93    O90     0.852   1_655 S
H94    O90     0.853   1_655 S
Ce99   N103    2.700   .     S
Ce99   O129    2.487   .     S
Ce99   O134    2.511   .     S
Ce99   O135    2.537   .     S
Ce99   O138    2.505   .     S
Ce99   N153    2.702   .     S
Ce99   O180    2.525   .     S
Ce99   O185    2.487   .     S
Ce99   O186    2.553   .     S
Ce100  O132    2.385   .     S
Ce100  O133    2.490   .     S
Ce100  O139    2.507   .     S
Ce100  O140    2.530   .     S
Ce100  O141    2.553   .     S
Ce100  O127    2.448   .     S
Ce100  O32     2.405   1_556 S
N101   H102    0.860   .     S
N101   C108    1.378   1_655 S
N101   C111    1.348   1_655 S
N103   C109    1.386   .     S
N103   C111    1.323   .     S
N104   C117    1.383   .     S
N104   C120    1.328   .     S
N104   Ce148   2.702   1_655 S
N105   H106    0.861   .     S
N105   C118    1.380   .     S
N105   C120    1.343   .     S
C107   C108    1.488   1_655 S
C107   O127    1.260   .     S
C107   O128    1.243   1_656 S
C108   C107    1.488   1_455 S
C108   N101    1.378   1_455 S
C108   C109    1.375   .     S
C109   C110    1.488   .     S
C110   O130    1.243   .     S
C110   O129    1.266   .     S
C111   N101    1.348   1_455 S
C111   C112    1.496   1_455 S
C112   C111    1.496   1_655 S
C112   H113    0.960   1_655 S
C112   H114    0.960   .     S
C112   H115    0.960   .     S
H113   C112    0.960   1_455 S
C116   C117    1.489   .     S
C116   O131    1.252   1_655 S
C116   O132    1.240   .     S
C117   C118    1.377   .     S
C118   C119    1.495   .     S
C119   O133    1.257   .     S
C119   O134    1.244   .     S
C120   C121    1.491   .     S
C121   H122    0.960   .     S
C121   H123    0.959   .     S
C121   H124    0.960   .     S
C125   C126    1.557   .     S
C125   O136    1.244   .     S
C125   O135    1.255   .     S
C126   O137    1.245   .     S
C126   O138    1.259   .     S
O128   C107    1.243   1_454 S
O130   Ce2     2.405   1_556 S
O131   C116    1.252   1_455 S
O131   Ce148   2.525   .     S
O136   Ce148   2.487   .     S
O137   Ce148   2.553   .     S
O139   H142    0.852   .     S
O139   H143    0.853   .     S
O140   H144    0.846   .     S
O140   H145    0.846   1_556 S
O141   H146    0.856   .     S
O141   H147    0.850   .     S
H145   O140    0.846   1_554 S
Ce148  N152    2.700   .     S
Ce148  O178    2.487   .     S
Ce148  O183    2.511   1_455 S
Ce148  O184    2.537   1_565 S
Ce148  O187    2.505   .     S
Ce148  N104    2.702   1_455 S
Ce149  O181    2.385   .     S
Ce149  O182    2.490   1_545 S
Ce149  O188    2.507   .     S
Ce149  O189    2.530   1_545 S
Ce149  O190    2.553   .     S
Ce149  O176    2.448   1_545 S
N150   H151    0.860   .     S
N150   C157    1.378   .     S
N150   C160    1.348   .     S
N152   C158    1.386   .     S
N152   C160    1.323   .     S
N153   C166    1.383   .     S
N153   C169    1.328   .     S
N154   H155    0.861   .     S
N154   C167    1.380   .     S
N154   C169    1.343   .     S
C156   C157    1.488   .     S
C156   O176    1.260   .     S
C156   O177    1.243   .     S
C157   C158    1.375   .     S
C158   C159    1.488   .     S
C159   O179    1.243   .     S
C159   O178    1.266   .     S
C160   C161    1.496   .     S
C161   H162    0.960   .     S
C161   H163    0.960   .     S
C161   H164    0.960   .     S
C165   C166    1.489   .     S
C165   O180    1.252   .     S
C165   O181    1.240   .     S
C166   C167    1.377   .     S
C167   C168    1.495   1_545 S
C168   C167    1.495   1_565 S
C168   O182    1.257   .     S
C168   O183    1.244   .     S
C169   C170    1.491   .     S
C170   H171    0.960   .     S
C170   H172    0.959   .     S
C170   H173    0.960   .     S
C174   C175    1.557   .     S
C174   O185    1.244   .     S
C174   O184    1.255   .     S
C175   O186    1.245   .     S
C175   O187    1.259   1_545 S
O176   Ce149   2.448   1_565 S
O182   Ce149   2.490   1_565 S
O183   Ce148   2.511   1_655 S
O184   Ce148   2.537   1_545 S
O187   C175    1.259   1_565 S
O188   H191    0.852   1_655 S
O188   H192    0.853   1_655 S
O189   Ce149   2.530   1_565 S
O189   H193    0.846   .     S
O189   H194    0.846   .     S
O190   H195    0.856   .     S
O190   H196    0.850   .     S
H191   O188    0.852   1_455 S
H192   O188    0.853   1_455 S
