data_FATKAO_FSR
_audit_creation_date              2024-06-11
_audit_creation_method            'Materials Studio'
_symmetry_space_group_name_H-M    'P1'
_symmetry_Int_Tables_number       1
_symmetry_cell_setting            triclinic
loop_
_symmetry_equiv_pos_as_xyz
  x,y,z
_cell_length_a                    10.1900
_cell_length_b                    11.2320
_cell_length_c                    22.1400
_cell_angle_alpha                 90.0000
_cell_angle_beta                  96.8630
_cell_angle_gamma                 90.0000
loop_
_atom_site_label
_atom_site_type_symbol
_atom_site_fract_x
_atom_site_fract_y
_atom_site_fract_z
_atom_site_U_iso_or_equiv
_atom_site_adp_type
_atom_site_occupancy
Gd1    Gd    0.61105   0.31383   0.72547   0.00000  Uiso   1.00
Gd2    Gd    0.25888   0.58827   0.56391   0.00000  Uiso   1.00
O3     O     0.12110   0.66370   0.63100   0.00000  Uiso   1.00
O4     O     0.97510   0.74700   0.68220   0.00000  Uiso   1.00
O5     O     0.31420   0.48660   0.65880   0.00000  Uiso   1.00
O6     O     0.59710   0.32340   0.61620   0.00000  Uiso   1.00
O7     O     0.42910   0.43950   0.74740   0.00000  Uiso   1.00
O8     O     0.67950   0.37010   0.53190   0.00000  Uiso   1.00
O9     O     0.94000   0.36460   0.49830   0.00000  Uiso   1.00
O10    O     0.12780   0.41480   0.55320   0.00000  Uiso   1.00
O11    O     0.63370   0.52140   0.68820   0.00000  Uiso   1.00
O12    O     0.73140   0.69650   0.70860   0.00000  Uiso   1.00
O13    O     0.72730   0.44350   0.79950   0.00000  Uiso   1.00
O14    O     0.84070   0.61440   0.81600   0.00000  Uiso   1.00
O15    O     0.26840   0.80450   0.55880   0.00000  Uiso   1.00
O16    O     0.48260   0.64610   0.59920   0.00000  Uiso   1.00
O17    O     0.39430   0.42360   0.53440   0.00000  Uiso   1.00
C18    C     0.07890   0.68870   0.67940   0.00000  Uiso   1.00
C19    C     0.15060   0.64600   0.73750   0.00000  Uiso   1.00
C20    C     0.25730   0.57290   0.75150   0.00000  Uiso   1.00
C21    C     0.34060   0.49520   0.71630   0.00000  Uiso   1.00
C22    C     0.18790   0.63670   0.83560   0.00000  Uiso   1.00
C23    C     0.18160   0.65590   0.90260   0.00000  Uiso   1.00
H24    H     0.24990   0.61030   0.92570   0.00000  Uiso   1.00
H25    H     0.09690   0.63080   0.91280   0.00000  Uiso   1.00
H26    H     0.19410   0.73880   0.91210   0.00000  Uiso   1.00
C27    C     0.69220   0.34720   0.58760   0.00000  Uiso   1.00
C28    C     0.82570   0.35040   0.62380   0.00000  Uiso   1.00
C29    C     0.94940   0.37130   0.60570   0.00000  Uiso   1.00
C30    C     0.00560   0.38510   0.54740   0.00000  Uiso   1.00
C31    C     0.96250   0.35130   0.70610   0.00000  Uiso   1.00
C32    C     0.02590   0.34540   0.76960   0.00000  Uiso   1.00
H33    H     0.95980   0.33130   0.79620   0.00000  Uiso   1.00
H34    H     0.06990   0.41930   0.78030   0.00000  Uiso   1.00
H35    H     0.08910   0.28160   0.77360   0.00000  Uiso   1.00
C36    C     0.70410   0.59240   0.72150   0.00000  Uiso   1.00
C37    C     0.76330   0.54670   0.78500   0.00000  Uiso   1.00
N38    N     0.10520   0.68760   0.79160   0.00000  Uiso   1.00
N39    N     0.27710   0.56930   0.81380   0.00000  Uiso   1.00
H40    H     0.33800   0.52950   0.83520   0.00000  Uiso   1.00
N41    N     0.83540   0.34010   0.68600   0.00000  Uiso   1.00
N42    N     0.03400   0.37130   0.65850   0.00000  Uiso   1.00
H43    H     0.11800   0.38200   0.66140   0.00000  Uiso   1.00
Gd44   Gd    0.88895   0.81383   0.77453   0.00000  Uiso   1.00
Gd45   Gd    0.24112   0.08827   0.93609   0.00000  Uiso   1.00
O46    O     0.37890   0.16370   0.86900   0.00000  Uiso   1.00
O47    O     0.52490   0.24700   0.81780   0.00000  Uiso   1.00
O48    O     0.18580   0.98660   0.84120   0.00000  Uiso   1.00
O49    O     0.90290   0.82340   0.88380   0.00000  Uiso   1.00
O50    O     0.07090   0.93950   0.75260   0.00000  Uiso   1.00
O51    O     0.82050   0.87010   0.96810   0.00000  Uiso   1.00
O52    O     0.56000   0.86460   0.00170   0.00000  Uiso   1.00
O53    O     0.37220   0.91480   0.94680   0.00000  Uiso   1.00
O54    O     0.86630   0.02140   0.81180   0.00000  Uiso   1.00
O55    O     0.76860   0.19650   0.79140   0.00000  Uiso   1.00
O56    O     0.77270   0.94350   0.70050   0.00000  Uiso   1.00
O57    O     0.65930   0.11440   0.68400   0.00000  Uiso   1.00
O58    O     0.23160   0.30450   0.94120   0.00000  Uiso   1.00
O59    O     0.01740   0.14610   0.90080   0.00000  Uiso   1.00
O60    O     0.10570   0.92360   0.96560   0.00000  Uiso   1.00
C61    C     0.42110   0.18870   0.82060   0.00000  Uiso   1.00
C62    C     0.34940   0.14600   0.76250   0.00000  Uiso   1.00
C63    C     0.24270   0.07290   0.74850   0.00000  Uiso   1.00
C64    C     0.15940   0.99520   0.78370   0.00000  Uiso   1.00
C65    C     0.31210   0.13670   0.66440   0.00000  Uiso   1.00
C66    C     0.31840   0.15590   0.59740   0.00000  Uiso   1.00
H67    H     0.25010   0.11030   0.57430   0.00000  Uiso   1.00
H68    H     0.40310   0.13080   0.58720   0.00000  Uiso   1.00
H69    H     0.30590   0.23880   0.58790   0.00000  Uiso   1.00
C70    C     0.80780   0.84720   0.91240   0.00000  Uiso   1.00
C71    C     0.67430   0.85040   0.87620   0.00000  Uiso   1.00
C72    C     0.55060   0.87130   0.89430   0.00000  Uiso   1.00
C73    C     0.49440   0.88510   0.95260   0.00000  Uiso   1.00
C74    C     0.53750   0.85130   0.79390   0.00000  Uiso   1.00
C75    C     0.47410   0.84540   0.73040   0.00000  Uiso   1.00
H76    H     0.54020   0.83130   0.70380   0.00000  Uiso   1.00
H77    H     0.43010   0.91930   0.71970   0.00000  Uiso   1.00
H78    H     0.41090   0.78160   0.72640   0.00000  Uiso   1.00
C79    C     0.79590   0.09240   0.77850   0.00000  Uiso   1.00
C80    C     0.73670   0.04670   0.71500   0.00000  Uiso   1.00
N81    N     0.39480   0.18760   0.70840   0.00000  Uiso   1.00
N82    N     0.22290   0.06930   0.68620   0.00000  Uiso   1.00
H83    H     0.16200   0.02950   0.66480   0.00000  Uiso   1.00
N84    N     0.66460   0.84010   0.81400   0.00000  Uiso   1.00
N85    N     0.46600   0.87130   0.84150   0.00000  Uiso   1.00
H86    H     0.38200   0.88200   0.83860   0.00000  Uiso   1.00
Gd87   Gd    0.38895   0.68617   0.27453   0.00000  Uiso   1.00
Gd88   Gd    0.74112   0.41173   0.43609   0.00000  Uiso   1.00
O89    O     0.87890   0.33630   0.36900   0.00000  Uiso   1.00
O90    O     0.02490   0.25300   0.31780   0.00000  Uiso   1.00
O91    O     0.68580   0.51340   0.34120   0.00000  Uiso   1.00
O92    O     0.40290   0.67660   0.38380   0.00000  Uiso   1.00
O93    O     0.57090   0.56050   0.25260   0.00000  Uiso   1.00
O94    O     0.32050   0.62990   0.46810   0.00000  Uiso   1.00
O95    O     0.06000   0.63540   0.50170   0.00000  Uiso   1.00
O96    O     0.87220   0.58520   0.44680   0.00000  Uiso   1.00
O97    O     0.36630   0.47860   0.31180   0.00000  Uiso   1.00
O98    O     0.26860   0.30350   0.29140   0.00000  Uiso   1.00
O99    O     0.27270   0.55650   0.20050   0.00000  Uiso   1.00
O100   O     0.15930   0.38560   0.18400   0.00000  Uiso   1.00
O101   O     0.73160   0.19550   0.44120   0.00000  Uiso   1.00
O102   O     0.51740   0.35390   0.40080   0.00000  Uiso   1.00
O103   O     0.60570   0.57640   0.46560   0.00000  Uiso   1.00
C104   C     0.92110   0.31130   0.32060   0.00000  Uiso   1.00
C105   C     0.84940   0.35400   0.26250   0.00000  Uiso   1.00
C106   C     0.74270   0.42710   0.24850   0.00000  Uiso   1.00
C107   C     0.65940   0.50480   0.28370   0.00000  Uiso   1.00
C108   C     0.81210   0.36330   0.16440   0.00000  Uiso   1.00
C109   C     0.81840   0.34410   0.09740   0.00000  Uiso   1.00
H110   H     0.75010   0.38970   0.07430   0.00000  Uiso   1.00
H111   H     0.90310   0.36920   0.08720   0.00000  Uiso   1.00
H112   H     0.80590   0.26120   0.08790   0.00000  Uiso   1.00
C113   C     0.30780   0.65280   0.41240   0.00000  Uiso   1.00
C114   C     0.17430   0.64960   0.37620   0.00000  Uiso   1.00
C115   C     0.05060   0.62870   0.39430   0.00000  Uiso   1.00
C116   C     0.99440   0.61490   0.45260   0.00000  Uiso   1.00
C117   C     0.03750   0.64870   0.29390   0.00000  Uiso   1.00
C118   C     0.97410   0.65460   0.23040   0.00000  Uiso   1.00
H119   H     0.04020   0.66870   0.20380   0.00000  Uiso   1.00
H120   H     0.93010   0.58070   0.21970   0.00000  Uiso   1.00
H121   H     0.91090   0.71840   0.22640   0.00000  Uiso   1.00
C122   C     0.29590   0.40760   0.27850   0.00000  Uiso   1.00
C123   C     0.23670   0.45330   0.21500   0.00000  Uiso   1.00
N124   N     0.89480   0.31240   0.20840   0.00000  Uiso   1.00
N125   N     0.72290   0.43070   0.18620   0.00000  Uiso   1.00
H126   H     0.66200   0.47050   0.16480   0.00000  Uiso   1.00
N127   N     0.16460   0.65990   0.31400   0.00000  Uiso   1.00
N128   N     0.96600   0.62870   0.34150   0.00000  Uiso   1.00
H129   H     0.88200   0.61800   0.33860   0.00000  Uiso   1.00
Gd130  Gd    0.11105   0.18617   0.22547   0.00000  Uiso   1.00
Gd131  Gd    0.75888   0.91173   0.06391   0.00000  Uiso   1.00
O132   O     0.62110   0.83630   0.13100   0.00000  Uiso   1.00
O133   O     0.47510   0.75300   0.18220   0.00000  Uiso   1.00
O134   O     0.81420   0.01340   0.15880   0.00000  Uiso   1.00
O135   O     0.09710   0.17660   0.11620   0.00000  Uiso   1.00
O136   O     0.92910   0.06050   0.24740   0.00000  Uiso   1.00
O137   O     0.17950   0.12990   0.03190   0.00000  Uiso   1.00
O138   O     0.44000   0.13540   0.99830   0.00000  Uiso   1.00
O139   O     0.62780   0.08520   0.05320   0.00000  Uiso   1.00
O140   O     0.13370   0.97860   0.18820   0.00000  Uiso   1.00
O141   O     0.23140   0.80350   0.20860   0.00000  Uiso   1.00
O142   O     0.22730   0.05650   0.29950   0.00000  Uiso   1.00
O143   O     0.34070   0.88560   0.31600   0.00000  Uiso   1.00
O144   O     0.76840   0.69550   0.05880   0.00000  Uiso   1.00
O145   O     0.98260   0.85390   0.09920   0.00000  Uiso   1.00
O146   O     0.89430   0.07640   0.03440   0.00000  Uiso   1.00
C147   C     0.57890   0.81130   0.17940   0.00000  Uiso   1.00
C148   C     0.65060   0.85400   0.23750   0.00000  Uiso   1.00
C149   C     0.75730   0.92710   0.25150   0.00000  Uiso   1.00
C150   C     0.84060   0.00480   0.21630   0.00000  Uiso   1.00
C151   C     0.68790   0.86330   0.33560   0.00000  Uiso   1.00
C152   C     0.68160   0.84410   0.40260   0.00000  Uiso   1.00
H153   H     0.74990   0.88970   0.42570   0.00000  Uiso   1.00
H154   H     0.59690   0.86920   0.41280   0.00000  Uiso   1.00
H155   H     0.69410   0.76120   0.41210   0.00000  Uiso   1.00
C156   C     0.19220   0.15280   0.08760   0.00000  Uiso   1.00
C157   C     0.32570   0.14960   0.12380   0.00000  Uiso   1.00
C158   C     0.44940   0.12870   0.10570   0.00000  Uiso   1.00
C159   C     0.50560   0.11490   0.04740   0.00000  Uiso   1.00
C160   C     0.46250   0.14870   0.20610   0.00000  Uiso   1.00
C161   C     0.52590   0.15460   0.26960   0.00000  Uiso   1.00
H162   H     0.45980   0.16870   0.29620   0.00000  Uiso   1.00
H163   H     0.56990   0.08070   0.28030   0.00000  Uiso   1.00
H164   H     0.58910   0.21840   0.27360   0.00000  Uiso   1.00
C165   C     0.20410   0.90760   0.22150   0.00000  Uiso   1.00
C166   C     0.26330   0.95330   0.28500   0.00000  Uiso   1.00
N167   N     0.60520   0.81240   0.29160   0.00000  Uiso   1.00
N168   N     0.77710   0.93070   0.31380   0.00000  Uiso   1.00
H169   H     0.83800   0.97050   0.33520   0.00000  Uiso   1.00
N170   N     0.33540   0.15990   0.18600   0.00000  Uiso   1.00
N171   N     0.53400   0.12870   0.15850   0.00000  Uiso   1.00
H172   H     0.61800   0.11800   0.16140   0.00000  Uiso   1.00
loop_
_geom_bond_atom_site_label_1
_geom_bond_atom_site_label_2
_geom_bond_distance
_geom_bond_site_symmetry_2
_ccdc_geom_bond_type
Gd1    O6      2.409   .     S
Gd1    O7      2.425   .     S
Gd1    O11     2.493   .     S
Gd1    O13     2.397   .     S
Gd1    N41     2.560   .     S
Gd1    O47     2.438   .     S
Gd1    O55     2.426   .     S
Gd1    O57     2.492   .     S
Gd1    N81     2.610   .     S
Gd2    O3      2.322   .     S
Gd2    O5      2.398   .     S
Gd2    O15     2.434   .     S
Gd2    O16     2.409   .     S
Gd2    O17     2.443   .     S
Gd2    O94     2.330   .     S
Gd2    O95     2.370   .     S
Gd2    O10     2.358   .     S
O3     C18     1.234   .     S
O4     C18     1.252   1_655 S
O4     Gd44    2.438   .     S
O5     C21     1.273   .     S
O6     C27     1.248   .     S
O7     C21     1.237   .     S
O8     C27     1.251   .     S
O8     Gd88    2.330   .     S
O9     C30     1.228   1_655 S
O9     Gd88    2.370   .     S
O10    C30     1.281   .     S
O11    C36     1.252   .     S
O12    C36     1.243   .     S
O12    Gd44    2.426   .     S
O13    C37     1.269   .     S
O14    C37     1.242   .     S
O14    Gd44    2.492   .     S
C18    O4      1.252   1_455 S
C18    C19     1.481   .     S
C19    C20     1.368   .     S
C19    N38     1.414   .     S
C20    C21     1.499   .     S
C20    N39     1.371   .     S
C22    C23     1.508   .     S
C22    N38     1.338   .     S
C22    N39     1.318   .     S
C23    H24     0.961   .     S
C23    H25     0.960   .     S
C23    H26     0.960   .     S
C27    C28     1.495   .     S
C28    C29     1.388   .     S
C28    N41     1.374   .     S
C29    C30     1.481   1_655 S
C29    N42     1.367   1_655 S
C30    O9      1.228   1_455 S
C30    C29     1.481   1_455 S
C31    C32     1.477   1_655 S
C31    N41     1.324   .     S
C31    N42     1.369   1_655 S
C32    C31     1.477   1_455 S
C32    H33     0.959   1_455 S
C32    H34     0.960   .     S
C32    H35     0.960   .     S
H33    C32     0.959   1_655 S
C36    C37     1.550   .     S
N38    Gd44    2.610   1_455 S
N39    H40     0.860   .     S
N42    C29     1.367   1_455 S
N42    H43     0.859   .     S
N42    C31     1.369   1_455 S
Gd44   O49     2.409   .     S
Gd44   O50     2.425   1_655 S
Gd44   O54     2.493   1_565 S
Gd44   O56     2.397   .     S
Gd44   N84     2.560   .     S
Gd44   N38     2.610   1_655 S
Gd45   O46     2.322   .     S
Gd45   O48     2.398   1_545 S
Gd45   O58     2.434   .     S
Gd45   O59     2.409   .     S
Gd45   O60     2.443   1_545 S
Gd45   O137    2.330   1_556 S
Gd45   O138    2.370   .     S
Gd45   O53     2.358   1_545 S
O46    C61     1.234   .     S
O47    C61     1.252   .     S
O48    Gd45    2.398   1_565 S
O48    C64     1.273   .     S
O49    C70     1.248   .     S
O50    Gd44    2.425   1_455 S
O50    C64     1.237   .     S
O51    C70     1.251   .     S
O51    Gd131   2.330   1_556 S
O52    C73     1.228   1_554 S
O52    Gd131   2.370   .     S
O53    C73     1.281   .     S
O53    Gd45    2.358   1_565 S
O54    Gd44    2.493   1_545 S
O54    C79     1.252   .     S
O55    C79     1.243   .     S
O56    C80     1.269   1_565 S
O57    C80     1.242   .     S
O60    Gd45    2.443   1_565 S
C61    C62     1.481   .     S
C62    C63     1.368   .     S
C62    N81     1.414   .     S
C63    C64     1.499   1_545 S
C63    N82     1.371   .     S
C64    C63     1.499   1_565 S
C65    C66     1.508   .     S
C65    N81     1.338   .     S
C65    N82     1.318   .     S
C66    H67     0.961   .     S
C66    H68     0.960   .     S
C66    H69     0.960   .     S
C70    C71     1.495   .     S
C71    C72     1.388   .     S
C71    N84     1.374   .     S
C72    C73     1.481   .     S
C72    N85     1.367   .     S
C73    O52     1.228   1_556 S
C74    C75     1.477   .     S
C74    N84     1.324   .     S
C74    N85     1.369   .     S
C75    H76     0.959   .     S
C75    H77     0.960   .     S
C75    H78     0.960   .     S
C79    C80     1.550   .     S
C80    O56     1.269   1_545 S
N82    H83     0.860   .     S
N85    H86     0.859   .     S
Gd87   O92     2.409   .     S
Gd87   O93     2.425   .     S
Gd87   O97     2.493   .     S
Gd87   O99     2.397   .     S
Gd87   N127    2.560   .     S
Gd87   O133    2.438   .     S
Gd87   O141    2.426   .     S
Gd87   O143    2.492   .     S
Gd87   N167    2.610   .     S
Gd88   O89     2.322   .     S
Gd88   O91     2.398   .     S
Gd88   O101    2.434   .     S
Gd88   O102    2.409   .     S
Gd88   O103    2.443   .     S
Gd88   O96     2.358   .     S
O89    C104    1.234   .     S
O90    C104    1.252   1_455 S
O90    Gd130   2.438   .     S
O91    C107    1.273   .     S
O92    C113    1.248   .     S
O93    C107    1.237   .     S
O94    C113    1.251   .     S
O95    C116    1.228   1_455 S
O96    C116    1.281   .     S
O97    C122    1.252   .     S
O98    C122    1.243   .     S
O98    Gd130   2.426   .     S
O99    C123    1.269   .     S
O100   C123    1.242   .     S
O100   Gd130   2.492   .     S
C104   O90     1.252   1_655 S
C104   C105    1.481   .     S
C105   C106    1.368   .     S
C105   N124    1.414   .     S
C106   C107    1.499   .     S
C106   N125    1.371   .     S
C108   C109    1.508   .     S
C108   N124    1.338   .     S
C108   N125    1.318   .     S
C109   H110    0.961   .     S
C109   H111    0.960   .     S
C109   H112    0.960   .     S
C113   C114    1.495   .     S
C114   C115    1.388   .     S
C114   N127    1.374   .     S
C115   C116    1.481   1_455 S
C115   N128    1.367   1_455 S
C116   O95     1.228   1_655 S
C116   C115    1.481   1_655 S
C117   C118    1.477   1_455 S
C117   N127    1.324   .     S
C117   N128    1.369   1_455 S
C118   C117    1.477   1_655 S
C118   H119    0.959   1_655 S
C118   H120    0.960   .     S
C118   H121    0.960   .     S
H119   C118    0.959   1_455 S
C122   C123    1.550   .     S
N124   Gd130   2.610   1_655 S
N125   H126    0.860   .     S
N128   C115    1.367   1_655 S
N128   H129    0.859   .     S
N128   C117    1.369   1_655 S
Gd130  O135    2.409   .     S
Gd130  O136    2.425   1_455 S
Gd130  O140    2.493   1_545 S
Gd130  O142    2.397   .     S
Gd130  N170    2.560   .     S
Gd130  N124    2.610   1_455 S
Gd131  O132    2.322   .     S
Gd131  O134    2.398   1_565 S
Gd131  O144    2.434   .     S
Gd131  O145    2.409   .     S
Gd131  O146    2.443   1_565 S
Gd131  O51     2.330   1_554 S
Gd131  O139    2.358   1_565 S
O132   C147    1.234   .     S
O133   C147    1.252   .     S
O134   Gd131   2.398   1_545 S
O134   C150    1.273   .     S
O135   C156    1.248   .     S
O136   Gd130   2.425   1_655 S
O136   C150    1.237   .     S
O137   C156    1.251   .     S
O137   Gd45    2.330   1_554 S
O138   C159    1.228   1_556 S
O139   C159    1.281   .     S
O139   Gd131   2.358   1_545 S
O140   Gd130   2.493   1_565 S
O140   C165    1.252   .     S
O141   C165    1.243   .     S
O142   C166    1.269   1_545 S
O143   C166    1.242   .     S
O146   Gd131   2.443   1_545 S
C147   C148    1.481   .     S
C148   C149    1.368   .     S
C148   N167    1.414   .     S
C149   C150    1.499   1_565 S
C149   N168    1.371   .     S
C150   C149    1.499   1_545 S
C151   C152    1.508   .     S
C151   N167    1.338   .     S
C151   N168    1.318   .     S
C152   H153    0.961   .     S
C152   H154    0.960   .     S
C152   H155    0.960   .     S
C156   C157    1.495   .     S
C157   C158    1.388   .     S
C157   N170    1.374   .     S
C158   C159    1.481   .     S
C158   N171    1.367   .     S
C159   O138    1.228   1_554 S
C160   C161    1.477   .     S
C160   N170    1.324   .     S
C160   N171    1.369   .     S
C161   H162    0.959   .     S
C161   H163    0.960   .     S
C161   H164    0.960   .     S
C165   C166    1.550   .     S
C166   O142    1.269   1_565 S
N168   H169    0.860   .     S
N171   H172    0.859   .     S
