data_FERNUO_FSR
_audit_creation_date              2024-06-11
_audit_creation_method            'Materials Studio'
_symmetry_space_group_name_H-M    'P1'
_symmetry_Int_Tables_number       1
_symmetry_cell_setting            triclinic
loop_
_symmetry_equiv_pos_as_xyz
  x,y,z
_cell_length_a                    8.1240
_cell_length_b                    32.6520
_cell_length_c                    7.3790
_cell_angle_alpha                 90.0000
_cell_angle_beta                  93.1400
_cell_angle_gamma                 90.0000
loop_
_atom_site_label
_atom_site_type_symbol
_atom_site_fract_x
_atom_site_fract_y
_atom_site_fract_z
_atom_site_U_iso_or_equiv
_atom_site_adp_type
_atom_site_occupancy
C1     C     1.26630   0.20048   0.43030   0.00000  Uiso   1.00
C2     C     1.36720   0.16770   0.47430   0.00000  Uiso   1.00
C3     C     1.31540   0.12859   0.43690   0.00000  Uiso   1.00
C4     C     1.15820   0.12311   0.35200   0.00000  Uiso   1.00
C5     C     1.06210   0.15794   0.30980   0.00000  Uiso   1.00
C6     C     0.67130   0.18970   0.10160   0.00000  Uiso   1.00
C7     C     0.59230   0.15340   0.05690   0.00000  Uiso   1.00
C8     C     0.66720   0.11680   0.09060   0.00000  Uiso   1.00
C9     C     0.82890   0.11683   0.17650   0.00000  Uiso   1.00
C10    C     0.89940   0.15504   0.22110   0.00000  Uiso   1.00
C11    C     1.08170   0.08491   0.30590   0.00000  Uiso   1.00
C12    C     0.92700   0.08183   0.22050   0.00000  Uiso   1.00
C13    C     1.02460   0.01886   0.26390   0.00000  Uiso   1.00
C14    C     1.04490  -0.02597   0.26820   0.00000  Uiso   1.00
C15    C     1.20480  -0.04020   0.30790   0.00000  Uiso   1.00
C16    C     1.23920  -0.08180   0.32110   0.00000  Uiso   1.00
C17    C     1.11900  -0.11041   0.27940   0.00000  Uiso   1.00
C18    C     0.96130  -0.09677   0.22950   0.00000  Uiso   1.00
C19    C     0.92100  -0.05539   0.22460   0.00000  Uiso   1.00
N20    N     1.11890   0.19644   0.34780   0.00000  Uiso   1.00
N21    N     0.82240   0.19104   0.18410   0.00000  Uiso   1.00
N22    N     1.13830   0.04536   0.33340   0.00000  Uiso   1.00
N23    N     0.89450   0.04096   0.19830   0.00000  Uiso   1.00
O24    O     0.69720  -0.01343   0.03730   0.00000  Uiso   1.00
O25    O     0.65730  -0.02669   0.35360   0.00000  Uiso   1.00
O26    O     0.62800  -0.08155   0.13470   0.00000  Uiso   1.00
S27    S     0.70734  -0.04393   0.18340   0.00000  Uiso   1.00
Cl28   Cl    0.78060   0.28367   0.11220   0.00000  Uiso   1.00
Cl29   Cl    1.11560   0.29136   0.37930   0.00000  Uiso   1.00
Cu30   Cu    0.95686   0.24072   0.26118   0.00000  Uiso   1.00
H31    H     1.29500   0.22570   0.45600   0.00000  Uiso   1.00
H32    H     1.45600   0.17200   0.55300   0.00000  Uiso   1.00
H33    H     1.37300   0.10360   0.46900   0.00000  Uiso   1.00
H34    H     0.82100   0.02800   0.09000   0.00000  Uiso   1.00
H35    H     0.62200   0.21360   0.08200   0.00000  Uiso   1.00
H36    H     0.48900   0.15360  -0.01400   0.00000  Uiso   1.00
H37    H     0.62500   0.09300   0.07200   0.00000  Uiso   1.00
H38    H     1.28300  -0.02430   0.33000   0.00000  Uiso   1.00
H39    H     1.33900  -0.09000   0.32200   0.00000  Uiso   1.00
H40    H     1.14100  -0.14220   0.27800   0.00000  Uiso   1.00
H41    H     0.87500  -0.11810   0.20700   0.00000  Uiso   1.00
C42    C    -0.26630   0.70048   0.06970   0.00000  Uiso   1.00
C43    C    -0.36720   0.66770   0.02570   0.00000  Uiso   1.00
C44    C    -0.31540   0.62859   0.06310   0.00000  Uiso   1.00
C45    C    -0.15820   0.62311   0.14800   0.00000  Uiso   1.00
C46    C    -0.06210   0.65794   0.19020   0.00000  Uiso   1.00
C47    C     0.32870   0.68970   0.39840   0.00000  Uiso   1.00
C48    C     0.40770   0.65340   0.44310   0.00000  Uiso   1.00
C49    C     0.33280   0.61680   0.40940   0.00000  Uiso   1.00
C50    C     0.17110   0.61683   0.32350   0.00000  Uiso   1.00
C51    C     0.10060   0.65504   0.27890   0.00000  Uiso   1.00
C52    C    -0.08170   0.58491   0.19410   0.00000  Uiso   1.00
C53    C     0.07300   0.58183   0.27950   0.00000  Uiso   1.00
C54    C    -0.02460   0.51886   0.23610   0.00000  Uiso   1.00
C55    C    -0.04490   0.47403   0.23180   0.00000  Uiso   1.00
C56    C    -0.20480   0.45980   0.19210   0.00000  Uiso   1.00
C57    C    -0.23920   0.41820   0.17890   0.00000  Uiso   1.00
C58    C    -0.11900   0.38959   0.22060   0.00000  Uiso   1.00
C59    C     0.03870   0.40323   0.27050   0.00000  Uiso   1.00
C60    C     0.07900   0.44461   0.27540   0.00000  Uiso   1.00
N61    N    -0.11890   0.69644   0.15220   0.00000  Uiso   1.00
N62    N     0.17760   0.69104   0.31590   0.00000  Uiso   1.00
N63    N    -0.13830   0.54536   0.16660   0.00000  Uiso   1.00
N64    N     0.10550   0.54096   0.30170   0.00000  Uiso   1.00
O65    O     0.30280   0.48657   0.46270   0.00000  Uiso   1.00
O66    O     0.34270   0.47331   0.14640   0.00000  Uiso   1.00
O67    O     0.37200   0.41845   0.36530   0.00000  Uiso   1.00
S68    S     0.29266   0.45607   0.31660   0.00000  Uiso   1.00
Cl69   Cl    0.21940   0.78367   0.38780   0.00000  Uiso   1.00
Cl70   Cl   -0.11560   0.79136   0.12070   0.00000  Uiso   1.00
Cu71   Cu    0.04314   0.74072   0.23882   0.00000  Uiso   1.00
H72    H    -0.29500   0.72570   0.04400   0.00000  Uiso   1.00
H73    H    -0.45600   0.67200  -0.05300   0.00000  Uiso   1.00
H74    H    -0.37300   0.60360   0.03100   0.00000  Uiso   1.00
H75    H     0.17900   0.52800   0.41000   0.00000  Uiso   1.00
H76    H     0.37800   0.71360   0.41800   0.00000  Uiso   1.00
H77    H     0.51100   0.65360   0.51400   0.00000  Uiso   1.00
H78    H     0.37500   0.59300   0.42800   0.00000  Uiso   1.00
H79    H    -0.28300   0.47570   0.17000   0.00000  Uiso   1.00
H80    H    -0.33900   0.41000   0.17800   0.00000  Uiso   1.00
H81    H    -0.14100   0.35780   0.22200   0.00000  Uiso   1.00
H82    H     0.12500   0.38190   0.29300   0.00000  Uiso   1.00
C83    C    -0.26630   0.79952   0.56970   0.00000  Uiso   1.00
C84    C    -0.36720   0.83230   0.52570   0.00000  Uiso   1.00
C85    C    -0.31540   0.87141   0.56310   0.00000  Uiso   1.00
C86    C    -0.15820   0.87689   0.64800   0.00000  Uiso   1.00
C87    C    -0.06210   0.84206   0.69020   0.00000  Uiso   1.00
C88    C     0.32870   0.81030   0.89840   0.00000  Uiso   1.00
C89    C     0.40770   0.84660   0.94310   0.00000  Uiso   1.00
C90    C     0.33280   0.88320   0.90940   0.00000  Uiso   1.00
C91    C     0.17110   0.88317   0.82350   0.00000  Uiso   1.00
C92    C     0.10060   0.84496   0.77890   0.00000  Uiso   1.00
C93    C    -0.08170   0.91509   0.69410   0.00000  Uiso   1.00
C94    C     0.07300   0.91817   0.77950   0.00000  Uiso   1.00
C95    C    -0.02460   0.98114   0.73610   0.00000  Uiso   1.00
C96    C    -0.04490   1.02597   0.73180   0.00000  Uiso   1.00
C97    C    -0.20480   1.04020   0.69210   0.00000  Uiso   1.00
C98    C    -0.23920   1.08180   0.67890   0.00000  Uiso   1.00
C99    C    -0.11900   1.11041   0.72060   0.00000  Uiso   1.00
C100   C     0.03870   1.09677   0.77050   0.00000  Uiso   1.00
C101   C     0.07900   1.05539   0.77540   0.00000  Uiso   1.00
N102   N    -0.11890   0.80356   0.65220   0.00000  Uiso   1.00
N103   N     0.17760   0.80896   0.81590   0.00000  Uiso   1.00
N104   N    -0.13830   0.95464   0.66660   0.00000  Uiso   1.00
N105   N     0.10550   0.95904   0.80170   0.00000  Uiso   1.00
O106   O     0.30280   1.01343   0.96270   0.00000  Uiso   1.00
O107   O     0.34270   1.02669   0.64640   0.00000  Uiso   1.00
O108   O     0.37200   1.08155   0.86530   0.00000  Uiso   1.00
S109   S     0.29266   1.04393   0.81660   0.00000  Uiso   1.00
Cl110  Cl    0.21940   0.71633   0.88780   0.00000  Uiso   1.00
Cl111  Cl   -0.11560   0.70864   0.62070   0.00000  Uiso   1.00
Cu112  Cu    0.04314   0.75928   0.73882   0.00000  Uiso   1.00
H113   H    -0.29500   0.77430   0.54400   0.00000  Uiso   1.00
H114   H    -0.45600   0.82800   0.44700   0.00000  Uiso   1.00
H115   H    -0.37300   0.89640   0.53100   0.00000  Uiso   1.00
H116   H     0.17900   0.97200   0.91000   0.00000  Uiso   1.00
H117   H     0.37800   0.78640   0.91800   0.00000  Uiso   1.00
H118   H     0.51100   0.84640   1.01400   0.00000  Uiso   1.00
H119   H     0.37500   0.90700   0.92800   0.00000  Uiso   1.00
H120   H    -0.28300   1.02430   0.67000   0.00000  Uiso   1.00
H121   H    -0.33900   1.09000   0.67800   0.00000  Uiso   1.00
H122   H    -0.14100   1.14220   0.72200   0.00000  Uiso   1.00
H123   H     0.12500   1.11810   0.79300   0.00000  Uiso   1.00
C124   C     1.26630   0.29952   0.93030   0.00000  Uiso   1.00
C125   C     1.36720   0.33230   0.97430   0.00000  Uiso   1.00
C126   C     1.31540   0.37141   0.93690   0.00000  Uiso   1.00
C127   C     1.15820   0.37689   0.85200   0.00000  Uiso   1.00
C128   C     1.06210   0.34206   0.80980   0.00000  Uiso   1.00
C129   C     0.67130   0.31030   0.60160   0.00000  Uiso   1.00
C130   C     0.59230   0.34660   0.55690   0.00000  Uiso   1.00
C131   C     0.66720   0.38320   0.59060   0.00000  Uiso   1.00
C132   C     0.82890   0.38317   0.67650   0.00000  Uiso   1.00
C133   C     0.89940   0.34496   0.72110   0.00000  Uiso   1.00
C134   C     1.08170   0.41509   0.80590   0.00000  Uiso   1.00
C135   C     0.92700   0.41817   0.72050   0.00000  Uiso   1.00
C136   C     1.02460   0.48114   0.76390   0.00000  Uiso   1.00
C137   C     1.04490   0.52597   0.76820   0.00000  Uiso   1.00
C138   C     1.20480   0.54020   0.80790   0.00000  Uiso   1.00
C139   C     1.23920   0.58180   0.82110   0.00000  Uiso   1.00
C140   C     1.11900   0.61041   0.77940   0.00000  Uiso   1.00
C141   C     0.96130   0.59677   0.72950   0.00000  Uiso   1.00
C142   C     0.92100   0.55539   0.72460   0.00000  Uiso   1.00
N143   N     1.11890   0.30356   0.84780   0.00000  Uiso   1.00
N144   N     0.82240   0.30896   0.68410   0.00000  Uiso   1.00
N145   N     1.13830   0.45464   0.83340   0.00000  Uiso   1.00
N146   N     0.89450   0.45904   0.69830   0.00000  Uiso   1.00
O147   O     0.69720   0.51343   0.53730   0.00000  Uiso   1.00
O148   O     0.65730   0.52669   0.85360   0.00000  Uiso   1.00
O149   O     0.62800   0.58155   0.63470   0.00000  Uiso   1.00
S150   S     0.70734   0.54393   0.68340   0.00000  Uiso   1.00
Cl151  Cl    0.78060   0.21633   0.61220   0.00000  Uiso   1.00
Cl152  Cl    1.11560   0.20864   0.87930   0.00000  Uiso   1.00
Cu153  Cu    0.95686   0.25928   0.76118   0.00000  Uiso   1.00
H154   H     1.29500   0.27430   0.95600   0.00000  Uiso   1.00
H155   H     1.45600   0.32800   1.05300   0.00000  Uiso   1.00
H156   H     1.37300   0.39640   0.96900   0.00000  Uiso   1.00
H157   H     0.82100   0.47200   0.59000   0.00000  Uiso   1.00
H158   H     0.62200   0.28640   0.58200   0.00000  Uiso   1.00
H159   H     0.48900   0.34640   0.48600   0.00000  Uiso   1.00
H160   H     0.62500   0.40700   0.57200   0.00000  Uiso   1.00
H161   H     1.28300   0.52430   0.83000   0.00000  Uiso   1.00
H162   H     1.33900   0.59000   0.82200   0.00000  Uiso   1.00
H163   H     1.14100   0.64220   0.77800   0.00000  Uiso   1.00
H164   H     0.87500   0.61810   0.70700   0.00000  Uiso   1.00
loop_
_geom_bond_atom_site_label_1
_geom_bond_atom_site_label_2
_geom_bond_distance
_geom_bond_site_symmetry_2
_ccdc_geom_bond_type
C1     C2      1.376   .     S
C1     N20     1.320   .     S
C1     H31     0.874   .     S
C2     C3      1.368   .     S
C2     H32     0.912   .     S
C3     C4      1.403   .     S
C3     H33     0.964   .     S
C4     C5      1.405   .     S
C4     C11     1.426   .     S
C5     C10     1.446   .     S
C5     N20     1.363   .     S
C6     C7      1.379   .     S
C6     N21     1.341   .     S
C6     H35     0.885   .     S
C7     C8      1.358   .     S
C7     H36     0.964   .     S
C8     C9      1.427   .     S
C8     H37     0.857   .     S
C9     C10     1.404   .     S
C9     C12     1.421   .     S
C10    N21     1.352   .     S
C11    N22     1.382   .     S
C11    C12     1.378   .     S
C12    N23     1.368   .     S
C13    C14     1.473   .     S
C13    N22     1.346   .     S
C13    N23     1.348   .     S
C14    C15     1.396   .     S
C14    C19     1.416   .     S
C15    C16     1.389   .     S
C15    H38     0.830   .     S
C16    C17     1.374   .     S
C16    H39     0.854   .     S
C17    C18     1.387   .     S
C17    H40     1.053   .     S
C18    C19     1.390   .     S
C18    H41     0.996   .     S
C19    S27     1.785   .     S
N20    Cu30    2.035   .     S
N21    Cu30    2.020   .     S
N23    H34     1.059   .     S
O24    S27     1.467   .     S
O25    S27     1.454   .     S
O26    S27     1.424   .     S
Cl28   Cu30    2.248   .     S
Cl29   Cu30    2.244   .     S
C42    C43     1.376   .     S
C42    N61     1.320   .     S
C42    H72     0.874   .     S
C43    C44     1.368   .     S
C43    H73     0.912   .     S
C44    C45     1.403   .     S
C44    H74     0.964   .     S
C45    C46     1.405   .     S
C45    C52     1.426   .     S
C46    C51     1.446   .     S
C46    N61     1.363   .     S
C47    C48     1.379   .     S
C47    N62     1.341   .     S
C47    H76     0.885   .     S
C48    C49     1.358   .     S
C48    H77     0.964   .     S
C49    C50     1.427   .     S
C49    H78     0.857   .     S
C50    C51     1.404   .     S
C50    C53     1.421   .     S
C51    N62     1.352   .     S
C52    N63     1.382   .     S
C52    C53     1.378   .     S
C53    N64     1.368   .     S
C54    C55     1.473   .     S
C54    N63     1.346   .     S
C54    N64     1.348   .     S
C55    C56     1.396   .     S
C55    C60     1.416   .     S
C56    C57     1.389   .     S
C56    H79     0.830   .     S
C57    C58     1.374   .     S
C57    H80     0.854   .     S
C58    C59     1.387   .     S
C58    H81     1.053   .     S
C59    C60     1.390   .     S
C59    H82     0.996   .     S
C60    S68     1.785   .     S
N61    Cu71    2.035   .     S
N62    Cu71    2.020   .     S
N64    H75     1.059   .     S
O65    S68     1.467   .     S
O66    S68     1.454   .     S
O67    S68     1.424   .     S
Cl69   Cu71    2.248   .     S
Cl70   Cu71    2.244   .     S
C83    C84     1.376   .     S
C83    N102    1.320   .     S
C83    H113    0.874   .     S
C84    C85     1.368   .     S
C84    H114    0.912   .     S
C85    C86     1.403   .     S
C85    H115    0.964   .     S
C86    C87     1.405   .     S
C86    C93     1.426   .     S
C87    C92     1.446   .     S
C87    N102    1.363   .     S
C88    C89     1.379   .     S
C88    N103    1.341   .     S
C88    H117    0.885   .     S
C89    C90     1.358   .     S
C89    H118    0.964   .     S
C90    C91     1.427   .     S
C90    H119    0.857   .     S
C91    C92     1.404   .     S
C91    C94     1.421   .     S
C92    N103    1.352   .     S
C93    N104    1.382   .     S
C93    C94     1.378   .     S
C94    N105    1.368   .     S
C95    C96     1.473   .     S
C95    N104    1.346   .     S
C95    N105    1.348   .     S
C96    C97     1.396   .     S
C96    C101    1.416   .     S
C97    C98     1.389   .     S
C97    H120    0.830   .     S
C98    C99     1.374   .     S
C98    H121    0.854   .     S
C99    C100    1.387   .     S
C99    H122    1.053   .     S
C100   C101    1.390   .     S
C100   H123    0.996   .     S
C101   S109    1.785   .     S
N102   Cu112   2.035   .     S
N103   Cu112   2.020   .     S
N105   H116    1.059   .     S
O106   S109    1.467   .     S
O107   S109    1.454   .     S
O108   S109    1.424   .     S
Cl110  Cu112   2.248   .     S
Cl111  Cu112   2.244   .     S
C124   C125    1.376   .     S
C124   N143    1.320   .     S
C124   H154    0.874   .     S
C125   C126    1.368   .     S
C125   H155    0.912   .     S
C126   C127    1.403   .     S
C126   H156    0.964   .     S
C127   C128    1.405   .     S
C127   C134    1.426   .     S
C128   C133    1.446   .     S
C128   N143    1.363   .     S
C129   C130    1.379   .     S
C129   N144    1.341   .     S
C129   H158    0.885   .     S
C130   C131    1.358   .     S
C130   H159    0.964   .     S
C131   C132    1.427   .     S
C131   H160    0.857   .     S
C132   C133    1.404   .     S
C132   C135    1.421   .     S
C133   N144    1.352   .     S
C134   N145    1.382   .     S
C134   C135    1.378   .     S
C135   N146    1.368   .     S
C136   C137    1.473   .     S
C136   N145    1.346   .     S
C136   N146    1.348   .     S
C137   C138    1.396   .     S
C137   C142    1.416   .     S
C138   C139    1.389   .     S
C138   H161    0.830   .     S
C139   C140    1.374   .     S
C139   H162    0.854   .     S
C140   C141    1.387   .     S
C140   H163    1.053   .     S
C141   C142    1.390   .     S
C141   H164    0.996   .     S
C142   S150    1.785   .     S
N143   Cu153   2.035   .     S
N144   Cu153   2.020   .     S
N146   H157    1.059   .     S
O147   S150    1.467   .     S
O148   S150    1.454   .     S
O149   S150    1.424   .     S
Cl151  Cu153   2.248   .     S
Cl152  Cu153   2.244   .     S
