data_FERYAF_FSR
_audit_creation_date              2024-06-11
_audit_creation_method            'Materials Studio'
_symmetry_space_group_name_H-M    'P1'
_symmetry_Int_Tables_number       1
_symmetry_cell_setting            triclinic
loop_
_symmetry_equiv_pos_as_xyz
  x,y,z
_cell_length_a                    7.6290
_cell_length_b                    15.9460
_cell_length_c                    16.4690
_cell_angle_alpha                 92.8750
_cell_angle_beta                  99.7640
_cell_angle_gamma                 101.2390
loop_
_atom_site_label
_atom_site_type_symbol
_atom_site_fract_x
_atom_site_fract_y
_atom_site_fract_z
_atom_site_U_iso_or_equiv
_atom_site_adp_type
_atom_site_occupancy
C1     C     0.72890   0.13420   0.24610   0.00000  Uiso   1.00
C2     C     0.76150   0.07140   0.30020   0.00000  Uiso   1.00
H3     H     0.84610   0.08640   0.34900   0.00000  Uiso   1.00
C4     C     0.67080   0.98950   0.28180   0.00000  Uiso   1.00
C5     C     0.54030   0.96950   0.20890   0.00000  Uiso   1.00
C6     C     0.51020   0.03520   0.15870   0.00000  Uiso   1.00
C7     C     0.25440   0.07740  -0.03430   0.00000  Uiso   1.00
C8     C     0.14910   0.99750  -0.06760   0.00000  Uiso   1.00
C9     C     0.16130   0.92720  -0.02340   0.00000  Uiso   1.00
C10    C     0.27300   0.93640   0.05390   0.00000  Uiso   1.00
C11    C     0.37700   0.01950   0.08210   0.00000  Uiso   1.00
C12    C     0.43570   0.88730   0.17880   0.00000  Uiso   1.00
C13    C     0.30190   0.86990   0.10620   0.00000  Uiso   1.00
C14    C     0.31290   0.74850   0.16080   0.00000  Uiso   1.00
C15    C     0.27480   0.65540   0.16950   0.00000  Uiso   1.00
C16    C     0.29120   0.61760   0.24470   0.00000  Uiso   1.00
C17    C     0.25170   0.52860   0.24510   0.00000  Uiso   1.00
H18    H     0.26680   0.50380   0.29500   0.00000  Uiso   1.00
C19    C     0.19020   0.47680   0.17210   0.00000  Uiso   1.00
C20    C     0.17560   0.51220   0.09760   0.00000  Uiso   1.00
H21    H     0.13830   0.47710   0.04840   0.00000  Uiso   1.00
C22    C     0.21620   0.59980   0.09610   0.00000  Uiso   1.00
H23    H     0.20480   0.62330   0.04540   0.00000  Uiso   1.00
N24    N     0.60700   0.11790   0.17760   0.00000  Uiso   1.00
N25    N     0.36680   0.08980   0.03820   0.00000  Uiso   1.00
N26    N     0.43470   0.80780   0.20990   0.00000  Uiso   1.00
N27    N     0.23210   0.78470   0.09650   0.00000  Uiso   1.00
O28    O     0.36810   0.61530   0.40320   0.00000  Uiso   1.00
O29    O     0.23420   0.73210   0.34910   0.00000  Uiso   1.00
O30    O     0.54470   0.72820   0.34150   0.00000  Uiso   1.00
S31    S     0.36330   0.67894   0.34245   0.00000  Uiso   1.00
Cu32   Cu    0.53383   0.19975   0.09359   0.00000  Uiso   1.00
Cl33   Cl    0.78170   0.30300   0.14201   0.00000  Uiso   1.00
Cl34   Cl    0.43790   0.27882  -0.00821   0.00000  Uiso   1.00
H35    H     0.81400   0.19400   0.25700   0.00000  Uiso   1.00
H36    H     0.70000   0.94500   0.32200   0.00000  Uiso   1.00
H37    H     0.23600   0.12100  -0.07000   0.00000  Uiso   1.00
H38    H     0.05400   0.98900  -0.12700   0.00000  Uiso   1.00
H39    H     0.09400   0.88300  -0.04600   0.00000  Uiso   1.00
H40    H     0.17400   0.42100   0.17400   0.00000  Uiso   1.00
H41    H     0.50300   0.79100   0.25500   0.00000  Uiso   1.00
C42    C     0.92810   0.70950   0.50670   0.00000  Uiso   1.00
H43    H     0.97400   0.76600   0.52850   0.00000  Uiso   1.00
C44    C     0.89490   0.64700   0.56070   0.00000  Uiso   1.00
C45    C     0.82140   0.56340   0.53100   0.00000  Uiso   1.00
C46    C     0.78430   0.54410   0.44510   0.00000  Uiso   1.00
C47    C     0.82920   0.61080   0.39520   0.00000  Uiso   1.00
C48    C     0.80160   0.65360   0.18130   0.00000  Uiso   1.00
C49    C     0.72440   0.57470   0.13720   0.00000  Uiso   1.00
H50    H     0.70120   0.56980   0.07970   0.00000  Uiso   1.00
C51    C     0.68340   0.50490   0.17940   0.00000  Uiso   1.00
H52    H     0.63310   0.45140   0.15090   0.00000  Uiso   1.00
C53    C     0.71710   0.51360   0.26610   0.00000  Uiso   1.00
C54    C     0.79030   0.59320   0.30480   0.00000  Uiso   1.00
C55    C     0.70650   0.46230   0.40380   0.00000  Uiso   1.00
C56    C     0.67390   0.44780   0.31870   0.00000  Uiso   1.00
C57    C     0.56810   0.32470   0.37010   0.00000  Uiso   1.00
C58    C     0.49720   0.23720   0.38080   0.00000  Uiso   1.00
C59    C     0.56460   0.20280   0.45190   0.00000  Uiso   1.00
C60    C     0.49460   0.11930   0.46830   0.00000  Uiso   1.00
H61    H     0.54210   0.09780   0.51680   0.00000  Uiso   1.00
C62    C     0.35910   0.07060   0.41410   0.00000  Uiso   1.00
C63    C     0.28880   0.09950   0.34090   0.00000  Uiso   1.00
H64    H     0.19800   0.06290   0.30330   0.00000  Uiso   1.00
C65    C     0.35120   0.18240   0.32230   0.00000  Uiso   1.00
N66    N     0.89770   0.69250   0.42560   0.00000  Uiso   1.00
N67    N     0.83990   0.66590   0.26360   0.00000  Uiso   1.00
N68    N     0.64100   0.38500   0.43470   0.00000  Uiso   1.00
N69    N     0.58950   0.36190   0.30040   0.00000  Uiso   1.00
O70    O     0.37330   0.25050   0.18250   0.00000  Uiso   1.00
O71    O     0.16630   0.28990   0.26400   0.00000  Uiso   1.00
O72    O     0.10670   0.14740   0.18990   0.00000  Uiso   1.00
S73    S     0.23680   0.21937   0.23232   0.00000  Uiso   1.00
Cu74   Cu    0.93631   0.77722   0.33729   0.00000  Uiso   1.00
Cl75   Cl    0.95670   0.85655   0.22894   0.00000  Uiso   1.00
Cl76   Cl    0.99340   0.89064   0.42888   0.00000  Uiso   1.00
H77    H     0.52600   0.33200   0.25300   0.00000  Uiso   1.00
H78    H     0.89300   0.65900   0.60700   0.00000  Uiso   1.00
H79    H     0.80500   0.52700   0.56700   0.00000  Uiso   1.00
H80    H     0.87600   0.70400   0.15900   0.00000  Uiso   1.00
H81    H     0.66100   0.23800   0.48700   0.00000  Uiso   1.00
H82    H     0.31300   0.01900   0.41900   0.00000  Uiso   1.00
C83    C     0.27110   0.86580   0.75390   0.00000  Uiso   1.00
C84    C     0.23850   0.92860   0.69980   0.00000  Uiso   1.00
H85    H     0.15390   0.91360   0.65100   0.00000  Uiso   1.00
C86    C     0.32920   0.01050   0.71820   0.00000  Uiso   1.00
C87    C     0.45970   0.03050   0.79110   0.00000  Uiso   1.00
C88    C     0.48980   0.96480   0.84130   0.00000  Uiso   1.00
C89    C     0.74560   0.92260   1.03430   0.00000  Uiso   1.00
C90    C     0.85090   0.00250   1.06760   0.00000  Uiso   1.00
C91    C     0.83870   0.07280   1.02340   0.00000  Uiso   1.00
C92    C     0.72700   0.06360   0.94610   0.00000  Uiso   1.00
C93    C     0.62300   0.98050   0.91790   0.00000  Uiso   1.00
C94    C     0.56430   0.11270   0.82120   0.00000  Uiso   1.00
C95    C     0.69810   0.13010   0.89380   0.00000  Uiso   1.00
C96    C     0.68710   0.25150   0.83920   0.00000  Uiso   1.00
C97    C     0.72520   0.34460   0.83050   0.00000  Uiso   1.00
C98    C     0.70880   0.38240   0.75530   0.00000  Uiso   1.00
C99    C     0.74830   0.47140   0.75490   0.00000  Uiso   1.00
H100   H     0.73320   0.49620   0.70500   0.00000  Uiso   1.00
C101   C     0.80980   0.52320   0.82790   0.00000  Uiso   1.00
C102   C     0.82440   0.48780   0.90240   0.00000  Uiso   1.00
H103   H     0.86170   0.52290   0.95160   0.00000  Uiso   1.00
C104   C     0.78380   0.40020   0.90390   0.00000  Uiso   1.00
H105   H     0.79520   0.37670   0.95460   0.00000  Uiso   1.00
N106   N     0.39300   0.88210   0.82240   0.00000  Uiso   1.00
N107   N     0.63320   0.91020   0.96180   0.00000  Uiso   1.00
N108   N     0.56530   0.19220   0.79010   0.00000  Uiso   1.00
N109   N     0.76790   0.21530   0.90350   0.00000  Uiso   1.00
O110   O     0.63190   0.38470   0.59680   0.00000  Uiso   1.00
O111   O     0.76580   0.26790   0.65090   0.00000  Uiso   1.00
O112   O     0.45530   0.27180   0.65850   0.00000  Uiso   1.00
S113   S     0.63670   0.32106   0.65755   0.00000  Uiso   1.00
Cu114  Cu    0.46617   0.80025   0.90641   0.00000  Uiso   1.00
Cl115  Cl    0.21830   0.69700   0.85799   0.00000  Uiso   1.00
Cl116  Cl    0.56210   0.72118   1.00821   0.00000  Uiso   1.00
H117   H     0.18600   0.80600   0.74300   0.00000  Uiso   1.00
H118   H     0.30000   0.05500   0.67800   0.00000  Uiso   1.00
H119   H     0.76400   0.87900   1.07000   0.00000  Uiso   1.00
H120   H     0.94600   0.01100   1.12700   0.00000  Uiso   1.00
H121   H     0.90600   0.11700   1.04600   0.00000  Uiso   1.00
H122   H     0.82600   0.57900   0.82600   0.00000  Uiso   1.00
H123   H     0.49700   0.20900   0.74500   0.00000  Uiso   1.00
C124   C     0.07190   0.29050   0.49330   0.00000  Uiso   1.00
H125   H     0.02600   0.23400   0.47150   0.00000  Uiso   1.00
C126   C     0.10510   0.35300   0.43930   0.00000  Uiso   1.00
C127   C     0.17860   0.43660   0.46900   0.00000  Uiso   1.00
C128   C     0.21570   0.45590   0.55490   0.00000  Uiso   1.00
C129   C     0.17080   0.38920   0.60480   0.00000  Uiso   1.00
C130   C     0.19840   0.34640   0.81870   0.00000  Uiso   1.00
C131   C     0.27560   0.42530   0.86280   0.00000  Uiso   1.00
H132   H     0.29880   0.43020   0.92030   0.00000  Uiso   1.00
C133   C     0.31660   0.49510   0.82060   0.00000  Uiso   1.00
H134   H     0.36690   0.54860   0.84910   0.00000  Uiso   1.00
C135   C     0.28290   0.48640   0.73390   0.00000  Uiso   1.00
C136   C     0.20970   0.40680   0.69520   0.00000  Uiso   1.00
C137   C     0.29350   0.53770   0.59620   0.00000  Uiso   1.00
C138   C     0.32610   0.55220   0.68130   0.00000  Uiso   1.00
C139   C     0.43190   0.67530   0.62990   0.00000  Uiso   1.00
C140   C     0.50280   0.76280   0.61920   0.00000  Uiso   1.00
C141   C     0.43540   0.79720   0.54810   0.00000  Uiso   1.00
C142   C     0.50540   0.88070   0.53170   0.00000  Uiso   1.00
H143   H     0.45790   0.90220   0.48320   0.00000  Uiso   1.00
C144   C     0.64090   0.92940   0.58590   0.00000  Uiso   1.00
C145   C     0.71120   0.90050   0.65910   0.00000  Uiso   1.00
H146   H     0.80200   0.93710   0.69670   0.00000  Uiso   1.00
C147   C     0.64880   0.81760   0.67770   0.00000  Uiso   1.00
N148   N     0.10230   0.30750   0.57440   0.00000  Uiso   1.00
N149   N     0.16010   0.33410   0.73640   0.00000  Uiso   1.00
N150   N     0.35900   0.61500   0.56530   0.00000  Uiso   1.00
N151   N     0.41050   0.63810   0.69960   0.00000  Uiso   1.00
O152   O     0.62670   0.74950   0.81750   0.00000  Uiso   1.00
O153   O     0.83370   0.71010   0.73600   0.00000  Uiso   1.00
O154   O     0.89330   0.85260   0.81010   0.00000  Uiso   1.00
S155   S     0.76320   0.78063   0.76768   0.00000  Uiso   1.00
Cu156  Cu    0.06369   0.22278   0.66271   0.00000  Uiso   1.00
Cl157  Cl    0.04330   0.14345   0.77106   0.00000  Uiso   1.00
Cl158  Cl    0.00660   0.10936   0.57112   0.00000  Uiso   1.00
H159   H     0.47400   0.66800   0.74700   0.00000  Uiso   1.00
H160   H     0.10700   0.34100   0.39300   0.00000  Uiso   1.00
H161   H     0.19500   0.47300   0.43300   0.00000  Uiso   1.00
H162   H     0.12400   0.29600   0.84100   0.00000  Uiso   1.00
H163   H     0.33900   0.76200   0.51300   0.00000  Uiso   1.00
H164   H     0.68700   0.98100   0.58100   0.00000  Uiso   1.00
loop_
_geom_bond_atom_site_label_1
_geom_bond_atom_site_label_2
_geom_bond_distance
_geom_bond_site_symmetry_2
_ccdc_geom_bond_type
C1     C2      1.404   .     S
C1     N24     1.314   .     S
C1     H35     1.032   .     S
C2     H3      0.930   .     S
C2     C4      1.347   1_545 S
C4     C2      1.347   1_565 S
C4     C5      1.402   .     S
C4     H36     1.025   .     S
C5     C6      1.396   1_565 S
C5     C12     1.412   .     S
C6     C5      1.396   1_545 S
C6     C11     1.456   .     S
C6     N24     1.372   .     S
C7     C8      1.397   1_545 S
C7     N25     1.328   .     S
C7     H37     0.949   .     S
C8     C7      1.397   1_565 S
C8     C9      1.376   .     S
C8     H38     1.100   .     S
C9     C10     1.390   .     S
C9     H39     0.817   .     S
C10    C11     1.416   1_565 S
C10    C13     1.426   .     S
C11    C10     1.416   1_545 S
C11    N25     1.372   .     S
C12    N26     1.390   .     S
C12    C13     1.411   .     S
C13    N27     1.350   .     S
C14    C15     1.475   .     S
C14    N26     1.318   .     S
C14    N27     1.347   .     S
C15    C16     1.402   .     S
C15    C22     1.415   .     S
C16    C17     1.393   .     S
C16    S31     1.784   .     S
C17    H18     0.929   .     S
C17    C19     1.381   .     S
C19    C20     1.373   .     S
C19    H40     0.877   .     S
C20    H21     0.930   .     S
C20    C22     1.373   .     S
C22    H23     0.930   .     S
N24    Cu32    2.033   .     S
N25    Cu32    2.026   .     S
N26    H41     0.915   .     S
O28    S31     1.462   .     S
O29    S31     1.433   .     S
O29    Cu74    2.494   1_455 S
O30    S31     1.455   .     S
Cu32   Cl33    2.251   .     S
Cu32   Cl34    2.256   .     S
Cu32   O70     2.275   .     S
C42    H43     0.930   .     S
C42    C44     1.384   .     S
C42    N66     1.321   .     S
C44    C45     1.371   .     S
C44    H78     0.780   .     S
C45    C46     1.401   .     S
C45    H79     0.858   .     S
C46    C47     1.402   .     S
C46    C55     1.410   .     S
C47    C54     1.469   .     S
C47    N66     1.342   .     S
C48    C49     1.390   .     S
C48    N67     1.333   .     S
C48    H80     1.013   .     S
C49    H50     0.930   .     S
C49    C51     1.355   .     S
C51    H52     0.931   .     S
C51    C53     1.402   .     S
C53    C56     1.419   .     S
C53    C54     1.361   .     S
C54    N67     1.394   .     S
C55    N68     1.392   .     S
C55    C56     1.381   .     S
C56    N69     1.389   .     S
C57    C58     1.426   .     S
C57    N68     1.362   .     S
C57    N69     1.338   .     S
C58    C59     1.381   .     S
C58    C65     1.451   .     S
C59    C60     1.392   .     S
C59    H81     0.923   .     S
C60    H61     0.930   .     S
C60    C62     1.332   .     S
C62    C63     1.373   .     S
C62    H82     0.843   .     S
C63    H64     0.930   .     S
C63    C65     1.383   .     S
C65    S73     1.776   .     S
N66    Cu74    2.053   .     S
N67    Cu74    2.034   .     S
N69    H77     0.903   .     S
O70    S73     1.461   .     S
O71    S73     1.449   .     S
O72    S73     1.425   .     S
Cu74   O29     2.494   1_655 S
Cu74   Cl75    2.248   .     S
Cu74   Cl76    2.221   .     S
C83    C84     1.404   .     S
C83    N106    1.314   .     S
C83    H117    1.032   .     S
C84    H85     0.930   .     S
C84    C86     1.347   1_565 S
C86    C84     1.347   1_545 S
C86    C87     1.402   .     S
C86    H118    1.025   .     S
C87    C88     1.396   1_545 S
C87    C94     1.412   .     S
C88    C87     1.396   1_565 S
C88    C93     1.456   .     S
C88    N106    1.372   .     S
C89    C90     1.397   1_565 S
C89    N107    1.328   .     S
C89    H119    0.949   .     S
C90    C89     1.397   1_545 S
C90    C91     1.376   .     S
C90    H120    1.100   .     S
C91    C92     1.390   .     S
C91    H121    0.817   .     S
C92    C93     1.416   1_545 S
C92    C95     1.426   .     S
C93    C92     1.416   1_565 S
C93    N107    1.372   .     S
C94    N108    1.390   .     S
C94    C95     1.411   .     S
C95    N109    1.350   .     S
C96    C97     1.475   .     S
C96    N108    1.318   .     S
C96    N109    1.347   .     S
C97    C98     1.402   .     S
C97    C104    1.415   .     S
C98    C99     1.393   .     S
C98    S113    1.784   .     S
C99    H100    0.929   .     S
C99    C101    1.381   .     S
C101   C102    1.373   .     S
C101   H122    0.877   .     S
C102   H103    0.930   .     S
C102   C104    1.373   .     S
C104   H105    0.930   .     S
N106   Cu114   2.033   .     S
N107   Cu114   2.026   .     S
N108   H123    0.915   .     S
O110   S113    1.462   .     S
O111   S113    1.433   .     S
O111   Cu156   2.494   1_655 S
O112   S113    1.455   .     S
Cu114  Cl115   2.251   .     S
Cu114  Cl116   2.256   .     S
Cu114  O152    2.275   .     S
C124   H125    0.930   .     S
C124   C126    1.384   .     S
C124   N148    1.321   .     S
C126   C127    1.371   .     S
C126   H160    0.780   .     S
C127   C128    1.401   .     S
C127   H161    0.858   .     S
C128   C129    1.402   .     S
C128   C137    1.410   .     S
C129   C136    1.469   .     S
C129   N148    1.342   .     S
C130   C131    1.390   .     S
C130   N149    1.333   .     S
C130   H162    1.013   .     S
C131   H132    0.930   .     S
C131   C133    1.355   .     S
C133   H134    0.931   .     S
C133   C135    1.402   .     S
C135   C138    1.419   .     S
C135   C136    1.361   .     S
C136   N149    1.394   .     S
C137   N150    1.392   .     S
C137   C138    1.381   .     S
C138   N151    1.389   .     S
C139   C140    1.426   .     S
C139   N150    1.362   .     S
C139   N151    1.338   .     S
C140   C141    1.381   .     S
C140   C147    1.451   .     S
C141   C142    1.392   .     S
C141   H163    0.923   .     S
C142   H143    0.930   .     S
C142   C144    1.332   .     S
C144   C145    1.373   .     S
C144   H164    0.843   .     S
C145   H146    0.930   .     S
C145   C147    1.383   .     S
C147   S155    1.776   .     S
N148   Cu156   2.053   .     S
N149   Cu156   2.034   .     S
N151   H159    0.903   .     S
O152   S155    1.461   .     S
O153   S155    1.449   .     S
O154   S155    1.425   .     S
Cu156  O111    2.494   1_455 S
Cu156  Cl157   2.248   .     S
Cu156  Cl158   2.221   .     S
