data_FILGUE_FSR
_audit_creation_date              2024-06-11
_audit_creation_method            'Materials Studio'
_symmetry_space_group_name_H-M    'P1'
_symmetry_Int_Tables_number       1
_symmetry_cell_setting            triclinic
loop_
_symmetry_equiv_pos_as_xyz
  x,y,z
_cell_length_a                    14.7000
_cell_length_b                    14.7000
_cell_length_c                    13.2520
_cell_angle_alpha                 90.0000
_cell_angle_beta                  90.0000
_cell_angle_gamma                 120.0000
loop_
_atom_site_label
_atom_site_type_symbol
_atom_site_fract_x
_atom_site_fract_y
_atom_site_fract_z
_atom_site_U_iso_or_equiv
_atom_site_adp_type
_atom_site_occupancy
C1     C     0.64550   0.11110   0.10860   0.00000  Uiso   1.00
C2     C     0.64110   0.08590   0.99690   0.00000  Uiso   1.00
C3     C     0.62520   0.99110   0.96400   0.00000  Uiso   1.00
H4     H     0.62200   0.94260   0.01100   0.00000  Uiso   1.00
C5     C     0.61350   0.96500   0.86300   0.00000  Uiso   1.00
H6     H     0.60370   0.90010   0.84280   0.00000  Uiso   1.00
C7     C     0.61650   0.03500   0.79180   0.00000  Uiso   1.00
C8     C     0.63220   0.13220   0.82500   0.00000  Uiso   1.00
H9     H     0.63350   0.18030   0.77860   0.00000  Uiso   1.00
C10    C     0.62410   0.92960   0.65310   0.00000  Uiso   1.00
H11    H     0.68330   0.93690   0.69210   0.00000  Uiso   1.00
H12    H     0.64670   0.94510   0.58330   0.00000  Uiso   1.00
C13    C     0.61620   0.09090   0.61540   0.00000  Uiso   1.00
H14    H     0.64120   0.07670   0.55290   0.00000  Uiso   1.00
H15    H     0.67160   0.15760   0.64110   0.00000  Uiso   1.00
C16    C     0.53700   0.81690   0.65940   0.00000  Uiso   1.00
C17    C     0.52250   0.10170   0.59230   0.00000  Uiso   1.00
C18    C     0.64560   0.15650   0.92510   0.00000  Uiso   1.00
H19    H     0.65820   0.22230   0.94570   0.00000  Uiso   1.00
N20    N     0.59780   0.00820   0.68870   0.00000  Uiso   1.00
O21    O     0.53780   0.18340   0.55170   0.00000  Uiso   1.00
O22    O     0.43120   0.02460   0.61110   0.00000  Uiso   1.00
O23    O     0.56430   0.74970   0.64580   0.00000  Uiso   1.00
O24    O     0.44500   0.79600   0.67790   0.00000  Uiso   1.00
O25    O     0.62120   0.04360   0.16970   0.00000  Uiso   1.00
O26    O     0.67590   0.20690   0.12770   0.00000  Uiso   1.00
Zn27   Zn    0.60035   0.09588   0.30275   0.00000  Uiso   1.00
C28    C     0.88890   0.53440   0.10860   0.00000  Uiso   1.00
C29    C     0.91410   0.55520   0.99690   0.00000  Uiso   1.00
C30    C     0.00890   0.63410   0.96400   0.00000  Uiso   1.00
H31    H     0.05740   0.67940   0.01100   0.00000  Uiso   1.00
C32    C     0.03500   0.64850   0.86300   0.00000  Uiso   1.00
H33    H     0.09990   0.70360   0.84280   0.00000  Uiso   1.00
C34    C     0.96500   0.58150   0.79180   0.00000  Uiso   1.00
C35    C     0.86780   0.50000   0.82500   0.00000  Uiso   1.00
H36    H     0.81970   0.45320   0.77860   0.00000  Uiso   1.00
C37    C     0.07040   0.69450   0.65310   0.00000  Uiso   1.00
H38    H     0.06310   0.74640   0.69210   0.00000  Uiso   1.00
H39    H     0.05490   0.70160   0.58330   0.00000  Uiso   1.00
C40    C     0.90910   0.52530   0.61540   0.00000  Uiso   1.00
H41    H     0.92330   0.56450   0.55290   0.00000  Uiso   1.00
H42    H     0.84240   0.51400   0.64110   0.00000  Uiso   1.00
C43    C     0.18310   0.72010   0.65940   0.00000  Uiso   1.00
C44    C     0.89830   0.42080   0.59230   0.00000  Uiso   1.00
C45    C     0.84350   0.48910   0.92510   0.00000  Uiso   1.00
H46    H     0.77770   0.43590   0.94570   0.00000  Uiso   1.00
N47    N     0.99180   0.58960   0.68870   0.00000  Uiso   1.00
O48    O     0.81660   0.35440   0.55170   0.00000  Uiso   1.00
O49    O     0.97540   0.40660   0.61110   0.00000  Uiso   1.00
O50    O     0.25030   0.81460   0.64580   0.00000  Uiso   1.00
O51    O     0.20400   0.64900   0.67790   0.00000  Uiso   1.00
O52    O     0.95640   0.57760   0.16970   0.00000  Uiso   1.00
O53    O     0.79310   0.46900   0.12770   0.00000  Uiso   1.00
Zn54   Zn    0.90412   0.50447   0.30275   0.00000  Uiso   1.00
C55    C     0.46560   0.35450   0.10860   0.00000  Uiso   1.00
C56    C     0.44480   0.35890   0.99690   0.00000  Uiso   1.00
C57    C     0.36590   0.37480   0.96400   0.00000  Uiso   1.00
H58    H     0.32060   0.37800   0.01100   0.00000  Uiso   1.00
C59    C     0.35150   0.38650   0.86300   0.00000  Uiso   1.00
H60    H     0.29640   0.39630   0.84280   0.00000  Uiso   1.00
C61    C     0.41850   0.38350   0.79180   0.00000  Uiso   1.00
C62    C     0.50000   0.36780   0.82500   0.00000  Uiso   1.00
H63    H     0.54680   0.36650   0.77860   0.00000  Uiso   1.00
C64    C     0.30550   0.37590   0.65310   0.00000  Uiso   1.00
H65    H     0.25360   0.31670   0.69210   0.00000  Uiso   1.00
H66    H     0.29840   0.35330   0.58330   0.00000  Uiso   1.00
C67    C     0.47470   0.38380   0.61540   0.00000  Uiso   1.00
H68    H     0.43550   0.35880   0.55290   0.00000  Uiso   1.00
H69    H     0.48600   0.32840   0.64110   0.00000  Uiso   1.00
C70    C     0.27990   0.46300   0.65940   0.00000  Uiso   1.00
C71    C     0.57920   0.47750   0.59230   0.00000  Uiso   1.00
C72    C     0.51090   0.35440   0.92510   0.00000  Uiso   1.00
H73    H     0.56410   0.34180   0.94570   0.00000  Uiso   1.00
N74    N     0.41040   0.40220   0.68870   0.00000  Uiso   1.00
O75    O     0.64560   0.46220   0.55170   0.00000  Uiso   1.00
O76    O     0.59340   0.56880   0.61110   0.00000  Uiso   1.00
O77    O     0.18540   0.43570   0.64580   0.00000  Uiso   1.00
O78    O     0.35100   0.55500   0.67790   0.00000  Uiso   1.00
O79    O     0.42240   0.37880   0.16970   0.00000  Uiso   1.00
O80    O     0.53100   0.32410   0.12770   0.00000  Uiso   1.00
Zn81   Zn    0.49553   0.39965   0.30275   0.00000  Uiso   1.00
C82    C     0.35450   0.88890   0.89140   0.00000  Uiso   1.00
C83    C     0.35890   0.91410   0.00310   0.00000  Uiso   1.00
C84    C     0.37480   0.00890   0.03600   0.00000  Uiso   1.00
H85    H     0.37800   0.05740   0.98900   0.00000  Uiso   1.00
C86    C     0.38650   0.03500   0.13700   0.00000  Uiso   1.00
H87    H     0.39630   0.09990   0.15720   0.00000  Uiso   1.00
C88    C     0.38350   0.96500   0.20820   0.00000  Uiso   1.00
C89    C     0.36780   0.86780   0.17500   0.00000  Uiso   1.00
H90    H     0.36650   0.81970   0.22140   0.00000  Uiso   1.00
C91    C     0.37590   0.07040   0.34690   0.00000  Uiso   1.00
H92    H     0.31670   0.06310   0.30790   0.00000  Uiso   1.00
H93    H     0.35330   0.05490   0.41670   0.00000  Uiso   1.00
C94    C     0.38380   0.90910   0.38460   0.00000  Uiso   1.00
H95    H     0.35880   0.92330   0.44710   0.00000  Uiso   1.00
H96    H     0.32840   0.84240   0.35890   0.00000  Uiso   1.00
C97    C     0.46300   0.18310   0.34060   0.00000  Uiso   1.00
C98    C     0.47750   0.89830   0.40770   0.00000  Uiso   1.00
C99    C     0.35440   0.84350   0.07490   0.00000  Uiso   1.00
H100   H     0.34180   0.77770   0.05430   0.00000  Uiso   1.00
N101   N     0.40220   0.99180   0.31130   0.00000  Uiso   1.00
O102   O     0.46220   0.81660   0.44830   0.00000  Uiso   1.00
O103   O     0.56880   0.97540   0.38890   0.00000  Uiso   1.00
O104   O     0.43570   0.25030   0.35420   0.00000  Uiso   1.00
O105   O     0.55500   0.20400   0.32210   0.00000  Uiso   1.00
O106   O     0.37880   0.95640   0.83030   0.00000  Uiso   1.00
O107   O     0.32410   0.79310   0.87230   0.00000  Uiso   1.00
Zn108  Zn    0.39965   0.90412   0.69725   0.00000  Uiso   1.00
C109   C     0.11110   0.46560   0.89140   0.00000  Uiso   1.00
C110   C     0.08590   0.44480   0.00310   0.00000  Uiso   1.00
C111   C     0.99110   0.36590   0.03600   0.00000  Uiso   1.00
H112   H     0.94260   0.32060   0.98900   0.00000  Uiso   1.00
C113   C     0.96500   0.35150   0.13700   0.00000  Uiso   1.00
H114   H     0.90010   0.29640   0.15720   0.00000  Uiso   1.00
C115   C     0.03500   0.41850   0.20820   0.00000  Uiso   1.00
C116   C     0.13220   0.50000   0.17500   0.00000  Uiso   1.00
H117   H     0.18030   0.54680   0.22140   0.00000  Uiso   1.00
C118   C     0.92960   0.30550   0.34690   0.00000  Uiso   1.00
H119   H     0.93690   0.25360   0.30790   0.00000  Uiso   1.00
H120   H     0.94510   0.29840   0.41670   0.00000  Uiso   1.00
C121   C     0.09090   0.47470   0.38460   0.00000  Uiso   1.00
H122   H     0.07670   0.43550   0.44710   0.00000  Uiso   1.00
H123   H     0.15760   0.48600   0.35890   0.00000  Uiso   1.00
C124   C     0.81690   0.27990   0.34060   0.00000  Uiso   1.00
C125   C     0.10170   0.57920   0.40770   0.00000  Uiso   1.00
C126   C     0.15650   0.51090   0.07490   0.00000  Uiso   1.00
H127   H     0.22230   0.56410   0.05430   0.00000  Uiso   1.00
N128   N     0.00820   0.41040   0.31130   0.00000  Uiso   1.00
O129   O     0.18340   0.64560   0.44830   0.00000  Uiso   1.00
O130   O     0.02460   0.59340   0.38890   0.00000  Uiso   1.00
O131   O     0.74970   0.18540   0.35420   0.00000  Uiso   1.00
O132   O     0.79600   0.35100   0.32210   0.00000  Uiso   1.00
O133   O     0.04360   0.42240   0.83030   0.00000  Uiso   1.00
O134   O     0.20690   0.53100   0.87230   0.00000  Uiso   1.00
Zn135  Zn    0.09588   0.49553   0.69725   0.00000  Uiso   1.00
C136   C     0.53440   0.64550   0.89140   0.00000  Uiso   1.00
C137   C     0.55520   0.64110   0.00310   0.00000  Uiso   1.00
C138   C     0.63410   0.62520   0.03600   0.00000  Uiso   1.00
H139   H     0.67940   0.62200   0.98900   0.00000  Uiso   1.00
C140   C     0.64850   0.61350   0.13700   0.00000  Uiso   1.00
H141   H     0.70360   0.60370   0.15720   0.00000  Uiso   1.00
C142   C     0.58150   0.61650   0.20820   0.00000  Uiso   1.00
C143   C     0.50000   0.63220   0.17500   0.00000  Uiso   1.00
H144   H     0.45320   0.63350   0.22140   0.00000  Uiso   1.00
C145   C     0.69450   0.62410   0.34690   0.00000  Uiso   1.00
H146   H     0.74640   0.68330   0.30790   0.00000  Uiso   1.00
H147   H     0.70160   0.64670   0.41670   0.00000  Uiso   1.00
C148   C     0.52530   0.61620   0.38460   0.00000  Uiso   1.00
H149   H     0.56450   0.64120   0.44710   0.00000  Uiso   1.00
H150   H     0.51400   0.67160   0.35890   0.00000  Uiso   1.00
C151   C     0.72010   0.53700   0.34060   0.00000  Uiso   1.00
C152   C     0.42080   0.52250   0.40770   0.00000  Uiso   1.00
C153   C     0.48910   0.64560   0.07490   0.00000  Uiso   1.00
H154   H     0.43590   0.65820   0.05430   0.00000  Uiso   1.00
N155   N     0.58960   0.59780   0.31130   0.00000  Uiso   1.00
O156   O     0.35440   0.53780   0.44830   0.00000  Uiso   1.00
O157   O     0.40660   0.43120   0.38890   0.00000  Uiso   1.00
O158   O     0.81460   0.56430   0.35420   0.00000  Uiso   1.00
O159   O     0.64900   0.44500   0.32210   0.00000  Uiso   1.00
O160   O     0.57760   0.62120   0.83030   0.00000  Uiso   1.00
O161   O     0.46900   0.67590   0.87230   0.00000  Uiso   1.00
Zn162  Zn    0.50447   0.60035   0.69725   0.00000  Uiso   1.00
Na163  Na    0.66667   0.33333   0.20040   0.00000  Uiso   1.00
Na164  Na    0.66667   0.33333   0.47300   0.00000  Uiso   1.00
Na165  Na    0.33333   0.66667   0.79960   0.00000  Uiso   1.00
Na166  Na    0.33333   0.66667   0.52700   0.00000  Uiso   1.00
loop_
_geom_bond_atom_site_label_1
_geom_bond_atom_site_label_2
_geom_bond_distance
_geom_bond_site_symmetry_2
_ccdc_geom_bond_type
C1     C2      1.519   1_554 S
C1     O25     1.189   .     S
C1     O26     1.272   .     S
C2     C1      1.519   1_556 S
C2     C3      1.364   1_545 S
C2     C18     1.385   .     S
C3     C2      1.364   1_565 S
C3     H4      0.930   1_556 S
C3     C5      1.379   .     S
H4     C3      0.930   1_554 S
C5     H6      0.930   .     S
C5     C7      1.380   1_565 S
C7     C5      1.380   1_545 S
C7     C8      1.400   .     S
C7     N20     1.410   .     S
C8     H9      0.930   .     S
C8     C18     1.362   .     S
C10    H11     0.971   .     S
C10    H12     0.971   .     S
C10    C16     1.507   .     S
C10    N20     1.468   1_565 S
C13    H14     0.970   .     S
C13    H15     0.971   .     S
C13    C17     1.495   .     S
C13    N20     1.472   .     S
C16    O23     1.251   .     S
C16    O24     1.252   .     S
C17    O21     1.230   .     S
C17    O22     1.275   .     S
C18    H19     0.930   .     S
N20    Zn108   2.526   1_545 S
N20    C10     1.468   1_545 S
O21    Na164   2.315   .     S
O22    Zn108   1.958   1_545 S
O23    Zn162   2.032   .     S
O24    Na165   2.406   .     S
O24    Na166   2.681   .     S
O24    Zn108   2.024   .     S
O25    Zn27    2.007   .     S
O26    Na163   2.157   .     S
Zn27   N101    2.526   1_545 S
Zn27   O103    1.958   1_545 S
Zn27   O131    2.032   .     S
Zn27   O105    2.024   .     S
C28    C29     1.519   1_554 S
C28    O52     1.189   .     S
C28    O53     1.272   .     S
C29    C28     1.519   1_556 S
C29    C30     1.364   1_655 S
C29    C45     1.385   .     S
C30    C29     1.364   1_455 S
C30    H31     0.930   1_556 S
C30    C32     1.379   .     S
H31    C30     0.930   1_554 S
C32    H33     0.930   .     S
C32    C34     1.380   1_455 S
C34    C32     1.380   1_655 S
C34    C35     1.400   .     S
C34    N47     1.410   .     S
C35    H36     0.930   .     S
C35    C45     1.362   .     S
C37    H38     0.971   .     S
C37    H39     0.971   .     S
C37    C43     1.507   .     S
C37    N47     1.468   1_455 S
C40    H41     0.970   .     S
C40    H42     0.971   .     S
C40    C44     1.495   .     S
C40    N47     1.472   .     S
C43    O50     1.251   .     S
C43    O51     1.252   .     S
C44    O48     1.230   .     S
C44    O49     1.275   .     S
C45    H46     0.930   .     S
N47    Zn135   2.526   1_655 S
N47    C37     1.468   1_655 S
O48    Na164   2.315   .     S
O49    Zn135   1.958   1_655 S
O50    Zn108   2.032   .     S
O51    Na165   2.406   .     S
O51    Na166   2.681   .     S
O51    Zn135   2.024   .     S
O52    Zn54    2.007   .     S
O53    Na163   2.157   .     S
Zn54   N128    2.526   1_655 S
Zn54   O130    1.958   1_655 S
Zn54   O158    2.032   .     S
Zn54   O132    2.024   .     S
C55    C56     1.519   1_554 S
C55    O79     1.189   .     S
C55    O80     1.272   .     S
C56    C55     1.519   1_556 S
C56    C57     1.364   .     S
C56    C72     1.385   .     S
C57    H58     0.930   1_556 S
C57    C59     1.379   .     S
H58    C57     0.930   1_554 S
C59    H60     0.930   .     S
C59    C61     1.380   .     S
C61    C62     1.400   .     S
C61    N74     1.410   .     S
C62    H63     0.930   .     S
C62    C72     1.362   .     S
C64    H65     0.971   .     S
C64    H66     0.971   .     S
C64    C70     1.507   .     S
C64    N74     1.468   .     S
C67    H68     0.970   .     S
C67    H69     0.971   .     S
C67    C71     1.495   .     S
C67    N74     1.472   .     S
C70    O77     1.251   .     S
C70    O78     1.252   .     S
C71    O75     1.230   .     S
C71    O76     1.275   .     S
C72    H73     0.930   .     S
N74    Zn162   2.526   .     S
O75    Na164   2.315   .     S
O76    Zn162   1.958   .     S
O77    Zn135   2.032   .     S
O78    Na165   2.406   .     S
O78    Na166   2.681   .     S
O78    Zn162   2.024   .     S
O79    Zn81    2.007   .     S
O80    Na163   2.157   .     S
Zn81   N155    2.526   .     S
Zn81   O157    1.958   .     S
Zn81   O104    2.032   .     S
Zn81   O159    2.024   .     S
C82    C83     1.519   1_556 S
C82    O106    1.189   .     S
C82    O107    1.272   .     S
C83    C82     1.519   1_554 S
C83    C84     1.364   1_565 S
C83    C99     1.385   .     S
C84    C83     1.364   1_545 S
C84    H85     0.930   1_554 S
C84    C86     1.379   .     S
H85    C84     0.930   1_556 S
C86    H87     0.930   .     S
C86    C88     1.380   1_545 S
C88    C86     1.380   1_565 S
C88    C89     1.400   .     S
C88    N101    1.410   .     S
C89    H90     0.930   .     S
C89    C99     1.362   .     S
C91    H92     0.971   .     S
C91    H93     0.971   .     S
C91    C97     1.507   .     S
C91    N101    1.468   1_545 S
C94    H95     0.970   .     S
C94    H96     0.971   .     S
C94    C98     1.495   .     S
C94    N101    1.472   .     S
C97    O104    1.251   .     S
C97    O105    1.252   .     S
C98    O102    1.230   .     S
C98    O103    1.275   .     S
C99    H100    0.930   .     S
N101   Zn27    2.526   1_565 S
N101   C91     1.468   1_565 S
O102   Na166   2.315   .     S
O103   Zn27    1.958   1_565 S
O105   Na163   2.406   .     S
O105   Na164   2.681   .     S
O106   Zn108   2.007   .     S
O107   Na165   2.157   .     S
Zn108  N20     2.526   1_565 S
Zn108  O22     1.958   1_565 S
C109   C110    1.519   1_556 S
C109   O133    1.189   .     S
C109   O134    1.272   .     S
C110   C109    1.519   1_554 S
C110   C111    1.364   1_455 S
C110   C126    1.385   .     S
C111   C110    1.364   1_655 S
C111   H112    0.930   1_554 S
C111   C113    1.379   .     S
H112   C111    0.930   1_556 S
C113   H114    0.930   .     S
C113   C115    1.380   1_655 S
C115   C113    1.380   1_455 S
C115   C116    1.400   .     S
C115   N128    1.410   .     S
C116   H117    0.930   .     S
C116   C126    1.362   .     S
C118   H119    0.971   .     S
C118   H120    0.971   .     S
C118   C124    1.507   .     S
C118   N128    1.468   1_655 S
C121   H122    0.970   .     S
C121   H123    0.971   .     S
C121   C125    1.495   .     S
C121   N128    1.472   .     S
C124   O131    1.251   .     S
C124   O132    1.252   .     S
C125   O129    1.230   .     S
C125   O130    1.275   .     S
C126   H127    0.930   .     S
N128   Zn54    2.526   1_455 S
N128   C118    1.468   1_455 S
O129   Na166   2.315   .     S
O130   Zn54    1.958   1_455 S
O132   Na163   2.406   .     S
O132   Na164   2.681   .     S
O133   Zn135   2.007   .     S
O134   Na165   2.157   .     S
Zn135  N47     2.526   1_455 S
Zn135  O49     1.958   1_455 S
C136   C137    1.519   1_556 S
C136   O160    1.189   .     S
C136   O161    1.272   .     S
C137   C136    1.519   1_554 S
C137   C138    1.364   .     S
C137   C153    1.385   .     S
C138   H139    0.930   1_554 S
C138   C140    1.379   .     S
H139   C138    0.930   1_556 S
C140   H141    0.930   .     S
C140   C142    1.380   .     S
C142   C143    1.400   .     S
C142   N155    1.410   .     S
C143   H144    0.930   .     S
C143   C153    1.362   .     S
C145   H146    0.971   .     S
C145   H147    0.971   .     S
C145   C151    1.507   .     S
C145   N155    1.468   .     S
C148   H149    0.970   .     S
C148   H150    0.971   .     S
C148   C152    1.495   .     S
C148   N155    1.472   .     S
C151   O158    1.251   .     S
C151   O159    1.252   .     S
C152   O156    1.230   .     S
C152   O157    1.275   .     S
C153   H154    0.930   .     S
O156   Na166   2.315   .     S
O159   Na163   2.406   .     S
O159   Na164   2.681   .     S
O160   Zn162   2.007   .     S
O161   Na165   2.157   .     S
