data_FUYCEJ_FSR
_audit_creation_date              2024-06-11
_audit_creation_method            'Materials Studio'
_symmetry_space_group_name_H-M    'P1'
_symmetry_Int_Tables_number       1
_symmetry_cell_setting            triclinic
loop_
_symmetry_equiv_pos_as_xyz
  x,y,z
_cell_length_a                    17.9960
_cell_length_b                    17.9960
_cell_length_c                    17.9960
_cell_angle_alpha                 90.0000
_cell_angle_beta                  90.0000
_cell_angle_gamma                 90.0000
loop_
_atom_site_label
_atom_site_type_symbol
_atom_site_fract_x
_atom_site_fract_y
_atom_site_fract_z
_atom_site_U_iso_or_equiv
_atom_site_adp_type
_atom_site_occupancy
C1     C     0.75084   0.44253   0.05537   0.00000  Uiso   1.00
C2     C     0.81088   0.40775   0.09247   0.00000  Uiso   1.00
C3     C     0.71835   0.41005   0.99225   0.00000  Uiso   1.00
C4     C     0.80465   0.30729   0.00129   0.00000  Uiso   1.00
C5     C     0.84185   0.34191   0.06136   0.00000  Uiso   1.00
C6     C     0.74158   0.33994   0.96889   0.00000  Uiso   1.00
O7     O     0.70112   0.30401   0.91311   0.00000  Uiso   1.00
O8     O     0.66265   0.44618   0.95186   0.00000  Uiso   1.00
H9     H     0.72816   0.49773   0.07664   0.00000  Uiso   1.00
H10    H     0.82581   0.25210   0.97851   0.00000  Uiso   1.00
C11    C     0.74916   0.55747   0.55537   0.00000  Uiso   1.00
C12    C     0.68912   0.59225   0.59247   0.00000  Uiso   1.00
C13    C     0.78165   0.58995   0.49225   0.00000  Uiso   1.00
C14    C     0.69535   0.69271   0.50129   0.00000  Uiso   1.00
C15    C     0.65815   0.65809   0.56136   0.00000  Uiso   1.00
C16    C     0.75842   0.66006   0.46889   0.00000  Uiso   1.00
O17    O     0.79888   0.69599   0.41311   0.00000  Uiso   1.00
O18    O     0.83735   0.55382   0.45186   0.00000  Uiso   1.00
H19    H     0.77184   0.50227   0.57664   0.00000  Uiso   1.00
H20    H     0.67419   0.74790   0.47851   0.00000  Uiso   1.00
C21    C     0.24916   0.94253   0.44463   0.00000  Uiso   1.00
C22    C     0.18912   0.90775   0.40753   0.00000  Uiso   1.00
C23    C     0.28165   0.91005   0.50775   0.00000  Uiso   1.00
C24    C     0.19535   0.80729   0.49871   0.00000  Uiso   1.00
C25    C     0.15815   0.84191   0.43864   0.00000  Uiso   1.00
C26    C     0.25842   0.83994   0.53111   0.00000  Uiso   1.00
O27    O     0.29888   0.80401   0.58689   0.00000  Uiso   1.00
O28    O     0.33735   0.94618   0.54814   0.00000  Uiso   1.00
H29    H     0.27184   0.99773   0.42336   0.00000  Uiso   1.00
H30    H     0.17419   0.75210   0.52149   0.00000  Uiso   1.00
C31    C     0.25084   0.05747   0.94463   0.00000  Uiso   1.00
C32    C     0.31088   0.09225   0.90753   0.00000  Uiso   1.00
C33    C     0.21835   0.08995   0.00775   0.00000  Uiso   1.00
C34    C     0.30465   0.19271   0.99871   0.00000  Uiso   1.00
C35    C     0.34185   0.15809   0.93864   0.00000  Uiso   1.00
C36    C     0.24158   0.16006   0.03111   0.00000  Uiso   1.00
O37    O     0.20112   0.19599   0.08689   0.00000  Uiso   1.00
O38    O     0.16265   0.05382   0.04814   0.00000  Uiso   1.00
H39    H     0.22816   0.00227   0.92336   0.00000  Uiso   1.00
H40    H     0.32581   0.24790   0.02149   0.00000  Uiso   1.00
C41    C     0.05537   0.75084   0.44253   0.00000  Uiso   1.00
C42    C     0.09247   0.81088   0.40775   0.00000  Uiso   1.00
C43    C     0.99225   0.71835   0.41005   0.00000  Uiso   1.00
C44    C     0.00129   0.80465   0.30729   0.00000  Uiso   1.00
C45    C     0.06136   0.84185   0.34191   0.00000  Uiso   1.00
C46    C     0.96889   0.74158   0.33994   0.00000  Uiso   1.00
O47    O     0.91311   0.70112   0.30401   0.00000  Uiso   1.00
O48    O     0.95186   0.66265   0.44618   0.00000  Uiso   1.00
H49    H     0.07664   0.72816   0.49773   0.00000  Uiso   1.00
H50    H     0.97851   0.82581   0.25210   0.00000  Uiso   1.00
C51    C     0.55537   0.74916   0.55747   0.00000  Uiso   1.00
C52    C     0.59247   0.68912   0.59225   0.00000  Uiso   1.00
C53    C     0.49225   0.78165   0.58995   0.00000  Uiso   1.00
C54    C     0.50129   0.69535   0.69271   0.00000  Uiso   1.00
C55    C     0.56136   0.65815   0.65809   0.00000  Uiso   1.00
C56    C     0.46889   0.75842   0.66006   0.00000  Uiso   1.00
O57    O     0.41311   0.79888   0.69599   0.00000  Uiso   1.00
O58    O     0.45186   0.83735   0.55382   0.00000  Uiso   1.00
H59    H     0.57664   0.77184   0.50227   0.00000  Uiso   1.00
H60    H     0.47851   0.67419   0.74790   0.00000  Uiso   1.00
C61    C     0.44463   0.24916   0.94253   0.00000  Uiso   1.00
C62    C     0.40753   0.18912   0.90775   0.00000  Uiso   1.00
C63    C     0.50775   0.28165   0.91005   0.00000  Uiso   1.00
C64    C     0.49871   0.19535   0.80729   0.00000  Uiso   1.00
C65    C     0.43864   0.15815   0.84191   0.00000  Uiso   1.00
C66    C     0.53111   0.25842   0.83994   0.00000  Uiso   1.00
O67    O     0.58689   0.29888   0.80401   0.00000  Uiso   1.00
O68    O     0.54814   0.33735   0.94618   0.00000  Uiso   1.00
H69    H     0.42336   0.27184   0.99773   0.00000  Uiso   1.00
H70    H     0.52149   0.17419   0.75210   0.00000  Uiso   1.00
C71    C     0.94463   0.25084   0.05747   0.00000  Uiso   1.00
C72    C     0.90753   0.31088   0.09225   0.00000  Uiso   1.00
C73    C     0.00775   0.21835   0.08995   0.00000  Uiso   1.00
C74    C     0.99871   0.30465   0.19271   0.00000  Uiso   1.00
C75    C     0.93864   0.34185   0.15809   0.00000  Uiso   1.00
C76    C     0.03111   0.24158   0.16006   0.00000  Uiso   1.00
O77    O     0.08689   0.20112   0.19599   0.00000  Uiso   1.00
O78    O     0.04814   0.16265   0.05382   0.00000  Uiso   1.00
H79    H     0.92336   0.22816   0.00227   0.00000  Uiso   1.00
H80    H     0.02149   0.32581   0.24790   0.00000  Uiso   1.00
C81    C     0.44253   0.05537   0.75084   0.00000  Uiso   1.00
C82    C     0.40775   0.09247   0.81088   0.00000  Uiso   1.00
C83    C     0.41005   0.99225   0.71835   0.00000  Uiso   1.00
C84    C     0.30729   0.00129   0.80465   0.00000  Uiso   1.00
C85    C     0.34191   0.06136   0.84185   0.00000  Uiso   1.00
C86    C     0.33994   0.96889   0.74158   0.00000  Uiso   1.00
O87    O     0.30401   0.91311   0.70112   0.00000  Uiso   1.00
O88    O     0.44618   0.95186   0.66265   0.00000  Uiso   1.00
H89    H     0.49773   0.07664   0.72816   0.00000  Uiso   1.00
H90    H     0.25210   0.97851   0.82581   0.00000  Uiso   1.00
C91    C     0.55747   0.55537   0.74916   0.00000  Uiso   1.00
C92    C     0.59225   0.59247   0.68912   0.00000  Uiso   1.00
C93    C     0.58995   0.49225   0.78165   0.00000  Uiso   1.00
C94    C     0.69271   0.50129   0.69535   0.00000  Uiso   1.00
C95    C     0.65809   0.56136   0.65815   0.00000  Uiso   1.00
C96    C     0.66006   0.46889   0.75842   0.00000  Uiso   1.00
O97    O     0.69599   0.41311   0.79888   0.00000  Uiso   1.00
O98    O     0.55382   0.45186   0.83735   0.00000  Uiso   1.00
H99    H     0.50227   0.57664   0.77184   0.00000  Uiso   1.00
H100   H     0.74790   0.47851   0.67419   0.00000  Uiso   1.00
C101   C     0.94253   0.44463   0.24916   0.00000  Uiso   1.00
C102   C     0.90775   0.40753   0.18912   0.00000  Uiso   1.00
C103   C     0.91005   0.50775   0.28165   0.00000  Uiso   1.00
C104   C     0.80729   0.49871   0.19535   0.00000  Uiso   1.00
C105   C     0.84191   0.43864   0.15815   0.00000  Uiso   1.00
C106   C     0.83994   0.53111   0.25842   0.00000  Uiso   1.00
O107   O     0.80401   0.58689   0.29888   0.00000  Uiso   1.00
O108   O     0.94618   0.54814   0.33735   0.00000  Uiso   1.00
H109   H     0.99773   0.42336   0.27184   0.00000  Uiso   1.00
H110   H     0.75210   0.52149   0.17419   0.00000  Uiso   1.00
C111   C     0.05747   0.94463   0.25084   0.00000  Uiso   1.00
C112   C     0.09225   0.90753   0.31088   0.00000  Uiso   1.00
C113   C     0.08995   0.00775   0.21835   0.00000  Uiso   1.00
C114   C     0.19271   0.99871   0.30465   0.00000  Uiso   1.00
C115   C     0.15809   0.93864   0.34185   0.00000  Uiso   1.00
C116   C     0.16006   0.03111   0.24158   0.00000  Uiso   1.00
O117   O     0.19599   0.08689   0.20112   0.00000  Uiso   1.00
O118   O     0.05382   0.04814   0.16265   0.00000  Uiso   1.00
H119   H     0.00227   0.92336   0.22816   0.00000  Uiso   1.00
H120   H     0.24790   0.02149   0.32581   0.00000  Uiso   1.00
Ti121  Ti    0.62477   0.37523   0.87523   0.00000  Uiso   1.00
Ti122  Ti    0.87523   0.62477   0.37523   0.00000  Uiso   1.00
Ti123  Ti    0.37523   0.87523   0.62477   0.00000  Uiso   1.00
Ti124  Ti    0.12477   0.12477   0.12477   0.00000  Uiso   1.00
loop_
_geom_bond_atom_site_label_1
_geom_bond_atom_site_label_2
_geom_bond_distance
_geom_bond_site_symmetry_2
_ccdc_geom_bond_type
C1     C2      1.416   .     S
C1     C3      1.405   1_554 S
C1     H9      1.140   .     S
C2     C5      1.424   .     S
C2     C105    1.421   .     S
C3     C1      1.405   1_556 S
C3     C6      1.394   .     S
C3     O8      1.399   .     S
C4     C5      1.416   .     S
C4     H10     1.140   1_554 S
C4     C6      1.405   1_554 S
C5     C72     1.421   .     S
C6     O7      1.399   .     S
C6     C4      1.405   1_556 S
O7     Ti121   1.999   .     S
O8     Ti121   1.999   .     S
H10    C4      1.140   1_556 S
C11    C12     1.416   .     S
C11    C13     1.405   .     S
C11    H19     1.140   .     S
C12    C15     1.424   .     S
C12    C95     1.421   .     S
C13    C16     1.394   .     S
C13    O18     1.399   .     S
C14    C15     1.416   .     S
C14    H20     1.140   .     S
C14    C16     1.405   .     S
C15    C52     1.421   .     S
C16    O17     1.399   .     S
O17    Ti122   1.999   .     S
O18    Ti122   1.999   .     S
C21    C22     1.416   .     S
C21    C23     1.405   .     S
C21    H29     1.140   .     S
C22    C25     1.424   .     S
C22    C115    1.421   .     S
C23    C26     1.394   .     S
C23    O28     1.399   .     S
C24    C25     1.416   .     S
C24    H30     1.140   .     S
C24    C26     1.405   .     S
C25    C42     1.421   .     S
C26    O27     1.399   .     S
O27    Ti123   1.999   .     S
O28    Ti123   1.999   .     S
C31    C32     1.416   .     S
C31    C33     1.405   1_556 S
C31    H39     1.140   .     S
C32    C35     1.424   .     S
C32    C85     1.421   .     S
C33    C31     1.405   1_554 S
C33    C36     1.394   .     S
C33    O38     1.399   .     S
C34    C35     1.416   .     S
C34    H40     1.140   1_556 S
C34    C36     1.405   1_556 S
C35    C62     1.421   .     S
C36    O37     1.399   .     S
C36    C34     1.405   1_554 S
O37    Ti124   1.999   .     S
O38    Ti124   1.999   .     S
H40    C34     1.140   1_554 S
C41    C42     1.416   .     S
C41    C43     1.405   1_455 S
C41    H49     1.140   .     S
C42    C45     1.424   .     S
C43    C41     1.405   1_655 S
C43    C46     1.394   .     S
C43    O48     1.399   .     S
C44    C45     1.416   .     S
C44    H50     1.140   1_455 S
C44    C46     1.405   1_455 S
C45    C112    1.421   .     S
C46    O47     1.399   .     S
C46    C44     1.405   1_655 S
O47    Ti122   1.999   .     S
O48    Ti122   1.999   .     S
H50    C44     1.140   1_655 S
C51    C52     1.416   .     S
C51    C53     1.405   .     S
C51    H59     1.140   .     S
C52    C55     1.424   .     S
C53    C56     1.394   .     S
C53    O58     1.399   .     S
C54    C55     1.416   .     S
C54    H60     1.140   .     S
C54    C56     1.405   .     S
C55    C92     1.421   .     S
C56    O57     1.399   .     S
O57    Ti123   1.999   .     S
O58    Ti123   1.999   .     S
C61    C62     1.416   .     S
C61    C63     1.405   .     S
C61    H69     1.140   .     S
C62    C65     1.424   .     S
C63    C66     1.394   .     S
C63    O68     1.399   .     S
C64    C65     1.416   .     S
C64    H70     1.140   .     S
C64    C66     1.405   .     S
C65    C82     1.421   .     S
C66    O67     1.399   .     S
O67    Ti121   1.999   .     S
O68    Ti121   1.999   .     S
C71    C72     1.416   .     S
C71    C73     1.405   1_655 S
C71    H79     1.140   .     S
C72    C75     1.424   .     S
C73    C71     1.405   1_455 S
C73    C76     1.394   .     S
C73    O78     1.399   .     S
C74    C75     1.416   .     S
C74    H80     1.140   1_655 S
C74    C76     1.405   1_655 S
C75    C102    1.421   .     S
C76    O77     1.399   .     S
C76    C74     1.405   1_455 S
O77    Ti124   1.999   .     S
O78    Ti124   1.999   .     S
H80    C74     1.140   1_455 S
C81    C82     1.416   .     S
C81    C83     1.405   1_545 S
C81    H89     1.140   .     S
C82    C85     1.424   .     S
C83    C81     1.405   1_565 S
C83    C86     1.394   .     S
C83    O88     1.399   .     S
C84    C85     1.416   .     S
C84    H90     1.140   1_545 S
C84    C86     1.405   1_545 S
C86    O87     1.399   .     S
C86    C84     1.405   1_565 S
O87    Ti123   1.999   .     S
O88    Ti123   1.999   .     S
H90    C84     1.140   1_565 S
C91    C92     1.416   .     S
C91    C93     1.405   .     S
C91    H99     1.140   .     S
C92    C95     1.424   .     S
C93    C96     1.394   .     S
C93    O98     1.399   .     S
C94    C95     1.416   .     S
C94    H100    1.140   .     S
C94    C96     1.405   .     S
C96    O97     1.399   .     S
O97    Ti121   1.999   .     S
O98    Ti121   1.999   .     S
C101   C102    1.416   .     S
C101   C103    1.405   .     S
C101   H109    1.140   .     S
C102   C105    1.424   .     S
C103   C106    1.394   .     S
C103   O108    1.399   .     S
C104   C105    1.416   .     S
C104   H110    1.140   .     S
C104   C106    1.405   .     S
C106   O107    1.399   .     S
O107   Ti122   1.999   .     S
O108   Ti122   1.999   .     S
C111   C112    1.416   .     S
C111   C113    1.405   1_565 S
C111   H119    1.140   .     S
C112   C115    1.424   .     S
C113   C111    1.405   1_545 S
C113   C116    1.394   .     S
C113   O118    1.399   .     S
C114   C115    1.416   .     S
C114   H120    1.140   1_565 S
C114   C116    1.405   1_565 S
C116   O117    1.399   .     S
C116   C114    1.405   1_545 S
O117   Ti124   1.999   .     S
O118   Ti124   1.999   .     S
H120   C114    1.140   1_545 S
