data_GARCOV_FSR
_audit_creation_date              2024-06-11
_audit_creation_method            'Materials Studio'
_symmetry_space_group_name_H-M    'P1'
_symmetry_Int_Tables_number       1
_symmetry_cell_setting            triclinic
loop_
_symmetry_equiv_pos_as_xyz
  x,y,z
_cell_length_a                    14.1306
_cell_length_b                    17.0415
_cell_length_c                    22.6360
_cell_angle_alpha                 90.0000
_cell_angle_beta                  90.0000
_cell_angle_gamma                 90.0000
loop_
_atom_site_label
_atom_site_type_symbol
_atom_site_fract_x
_atom_site_fract_y
_atom_site_fract_z
_atom_site_U_iso_or_equiv
_atom_site_adp_type
_atom_site_occupancy
O1     O     0.00580   0.64030   0.27713   0.06033  Uani   1.00
O2     O     0.01630   0.74750   0.33050   0.06200  Uani   1.00
O3     O     0.19910   0.32360   0.68969   0.05667  Uani   1.00
O4     O     0.35290   0.34990   0.67998   0.05733  Uani   1.00
C5     C     0.03520   0.67640   0.32150   0.05733  Uani   1.00
C6     C     0.08840   0.63210   0.36880   0.06033  Uani   1.00
C7     C     0.09580   0.55160   0.36380   0.07900  Uani   1.00
H8     H     0.07394   0.52604   0.33018   0.09500  Uiso   1.00
C9     C     0.13690   0.50880   0.41030   0.08433  Uani   1.00
C10    C     0.16920   0.54760   0.46100   0.07900  Uani   1.00
C11    C     0.16750   0.62760   0.46280   0.08833  Uani   1.00
H12    H     0.19529   0.65435   0.49410   0.10600  Uiso   1.00
C13    C     0.12470   0.66820   0.41800   0.08100  Uani   1.00
H14    H     0.12000   0.72244   0.42109   0.09700  Uiso   1.00
C15    C     0.20240   0.49820   0.51380   0.07933  Uani   1.00
C16    C     0.29290   0.49120   0.53210   0.08333  Uani   1.00
C17    C     0.31320   0.44710   0.58020   0.07967  Uani   1.00
H18    H     0.37610   0.44270   0.59190   0.09600  Uiso   1.00
C19    C     0.24510   0.40830   0.61290   0.05033  Uani   1.00
C20    C     0.15400   0.41770   0.59470   0.09933  Uani   1.00
H21    H     0.10497   0.39539   0.61643   0.11900  Uiso   1.00
C22    C     0.13410   0.45990   0.54460   0.09700  Uani   1.00
H23    H     0.07189   0.46227   0.53127   0.11700  Uiso   1.00
C24    C     0.26760   0.35750   0.66430   0.04833  Uani   1.00
S25    S     0.39310   0.55780   0.50860   0.10267  Uani   1.00
O26    O     0.48080   0.53420   0.53890   0.13367  Uani   1.00
O27    O     0.36640   0.63970   0.52240   0.17200  Uani   1.00
O28    O     0.39400   0.54270   0.44490   0.12200  Uani   1.00
O29    O     0.49420   0.85970   0.27713   0.06033  Uani   1.00
O30    O     0.48370   0.75250   0.33050   0.06200  Uani   1.00
O31    O     0.30090   0.17640   0.68969   0.05667  Uani   1.00
O32    O     0.14710   0.15010   0.67998   0.05733  Uani   1.00
C33    C     0.46480   0.82360   0.32150   0.05733  Uani   1.00
C34    C     0.41160   0.86790   0.36880   0.06033  Uani   1.00
C35    C     0.40420   0.94840   0.36380   0.07900  Uani   1.00
H36    H     0.42606   0.97396   0.33018   0.09500  Uiso   1.00
C37    C     0.36310   0.99120   0.41030   0.08433  Uani   1.00
C38    C     0.33080   0.95240   0.46100   0.07900  Uani   1.00
C39    C     0.33250   0.87240   0.46280   0.08833  Uani   1.00
H40    H     0.30471   0.84565   0.49410   0.10600  Uiso   1.00
C41    C     0.37530   0.83180   0.41800   0.08100  Uani   1.00
H42    H     0.38000   0.77756   0.42109   0.09700  Uiso   1.00
C43    C     0.29760   0.00180   0.51380   0.07933  Uani   1.00
C44    C     0.20710   0.00880   0.53210   0.08333  Uani   1.00
C45    C     0.18680   0.05290   0.58020   0.07967  Uani   1.00
H46    H     0.12390   0.05730   0.59190   0.09600  Uiso   1.00
C47    C     0.25490   0.09170   0.61290   0.05033  Uani   1.00
C48    C     0.34600   0.08230   0.59470   0.09933  Uani   1.00
H49    H     0.39503   0.10461   0.61643   0.11900  Uiso   1.00
C50    C     0.36590   0.04010   0.54460   0.09700  Uani   1.00
H51    H     0.42811   0.03773   0.53127   0.11700  Uiso   1.00
C52    C     0.23240   0.14250   0.66430   0.04833  Uani   1.00
S53    S     0.10690   0.94220   0.50860   0.10267  Uani   1.00
O54    O     0.01920   0.96580   0.53890   0.13367  Uani   1.00
O55    O     0.13360   0.86030   0.52240   0.17200  Uani   1.00
O56    O     0.10600   0.95730   0.44490   0.12200  Uani   1.00
O57    O     0.49420   0.64030   0.22287   0.06033  Uani   1.00
O58    O     0.48370   0.74750   0.16950   0.06200  Uani   1.00
O59    O     0.30090   0.32360   0.81031   0.05667  Uani   1.00
O60    O     0.14710   0.34990   0.82002   0.05733  Uani   1.00
C61    C     0.46480   0.67640   0.17850   0.05733  Uani   1.00
C62    C     0.41160   0.63210   0.13120   0.06033  Uani   1.00
C63    C     0.40420   0.55160   0.13620   0.07900  Uani   1.00
H64    H     0.42606   0.52604   0.16982   0.09500  Uiso   1.00
C65    C     0.36310   0.50880   0.08970   0.08433  Uani   1.00
C66    C     0.33080   0.54760   0.03900   0.07900  Uani   1.00
C67    C     0.33250   0.62760   0.03720   0.08833  Uani   1.00
H68    H     0.30471   0.65435   0.00590   0.10600  Uiso   1.00
C69    C     0.37530   0.66820   0.08200   0.08100  Uani   1.00
H70    H     0.38000   0.72244   0.07891   0.09700  Uiso   1.00
C71    C     0.29760   0.49820   0.98620   0.07933  Uani   1.00
C72    C     0.20710   0.49120   0.96790   0.08333  Uani   1.00
C73    C     0.18680   0.44710   0.91980   0.07967  Uani   1.00
H74    H     0.12390   0.44270   0.90810   0.09600  Uiso   1.00
C75    C     0.25490   0.40830   0.88710   0.05033  Uani   1.00
C76    C     0.34600   0.41770   0.90530   0.09933  Uani   1.00
H77    H     0.39503   0.39539   0.88357   0.11900  Uiso   1.00
C78    C     0.36590   0.45990   0.95540   0.09700  Uani   1.00
H79    H     0.42811   0.46227   0.96873   0.11700  Uiso   1.00
C80    C     0.23240   0.35750   0.83570   0.04833  Uani   1.00
S81    S     0.10690   0.55780   0.99140   0.10267  Uani   1.00
O82    O     0.01920   0.53420   0.96110   0.13367  Uani   1.00
O83    O     0.13360   0.63970   0.97760   0.17200  Uani   1.00
O84    O     0.10600   0.54270   0.05510   0.12200  Uani   1.00
O85    O     0.00580   0.85970   0.22287   0.06033  Uani   1.00
O86    O     0.01630   0.75250   0.16950   0.06200  Uani   1.00
O87    O     0.19910   0.17640   0.81031   0.05667  Uani   1.00
O88    O     0.35290   0.15010   0.82002   0.05733  Uani   1.00
C89    C     0.03520   0.82360   0.17850   0.05733  Uani   1.00
C90    C     0.08840   0.86790   0.13120   0.06033  Uani   1.00
C91    C     0.09580   0.94840   0.13620   0.07900  Uani   1.00
H92    H     0.07394   0.97396   0.16982   0.09500  Uiso   1.00
C93    C     0.13690   0.99120   0.08970   0.08433  Uani   1.00
C94    C     0.16920   0.95240   0.03900   0.07900  Uani   1.00
C95    C     0.16750   0.87240   0.03720   0.08833  Uani   1.00
H96    H     0.19529   0.84565   0.00590   0.10600  Uiso   1.00
C97    C     0.12470   0.83180   0.08200   0.08100  Uani   1.00
H98    H     0.12000   0.77756   0.07891   0.09700  Uiso   1.00
C99    C     0.20240   0.00180   0.98620   0.07933  Uani   1.00
C100   C     0.29290   0.00880   0.96790   0.08333  Uani   1.00
C101   C     0.31320   0.05290   0.91980   0.07967  Uani   1.00
H102   H     0.37610   0.05730   0.90810   0.09600  Uiso   1.00
C103   C     0.24510   0.09170   0.88710   0.05033  Uani   1.00
C104   C     0.15400   0.08230   0.90530   0.09933  Uani   1.00
H105   H     0.10497   0.10461   0.88357   0.11900  Uiso   1.00
C106   C     0.13410   0.04010   0.95540   0.09700  Uani   1.00
H107   H     0.07189   0.03773   0.96873   0.11700  Uiso   1.00
C108   C     0.26760   0.14250   0.83570   0.04833  Uani   1.00
S109   S     0.39310   0.94220   0.99140   0.10267  Uani   1.00
O110   O     0.48080   0.96580   0.96110   0.13367  Uani   1.00
O111   O     0.36640   0.86030   0.97760   0.17200  Uani   1.00
O112   O     0.39400   0.95730   0.05510   0.12200  Uani   1.00
O113   O     0.99420   0.35970   0.72287   0.06033  Uani   1.00
O114   O     0.98370   0.25250   0.66950   0.06200  Uani   1.00
O115   O     0.80090   0.67640   0.31031   0.05667  Uani   1.00
O116   O     0.64710   0.65010   0.32002   0.05733  Uani   1.00
C117   C     0.96480   0.32360   0.67850   0.05733  Uani   1.00
C118   C     0.91160   0.36790   0.63120   0.06033  Uani   1.00
C119   C     0.90420   0.44840   0.63620   0.07900  Uani   1.00
H120   H     0.92606   0.47396   0.66982   0.09500  Uiso   1.00
C121   C     0.86310   0.49120   0.58970   0.08433  Uani   1.00
C122   C     0.83080   0.45240   0.53900   0.07900  Uani   1.00
C123   C     0.83250   0.37240   0.53720   0.08833  Uani   1.00
H124   H     0.80471   0.34565   0.50590   0.10600  Uiso   1.00
C125   C     0.87530   0.33180   0.58200   0.08100  Uani   1.00
H126   H     0.88000   0.27756   0.57891   0.09700  Uiso   1.00
C127   C     0.79760   0.50180   0.48620   0.07933  Uani   1.00
C128   C     0.70710   0.50880   0.46790   0.08333  Uani   1.00
C129   C     0.68680   0.55290   0.41980   0.07967  Uani   1.00
H130   H     0.62390   0.55730   0.40810   0.09600  Uiso   1.00
C131   C     0.75490   0.59170   0.38710   0.05033  Uani   1.00
C132   C     0.84600   0.58230   0.40530   0.09933  Uani   1.00
H133   H     0.89503   0.60461   0.38357   0.11900  Uiso   1.00
C134   C     0.86590   0.54010   0.45540   0.09700  Uani   1.00
H135   H     0.92811   0.53773   0.46873   0.11700  Uiso   1.00
C136   C     0.73240   0.64250   0.33570   0.04833  Uani   1.00
S137   S     0.60690   0.44220   0.49140   0.10267  Uani   1.00
O138   O     0.51920   0.46580   0.46110   0.13367  Uani   1.00
O139   O     0.63360   0.36030   0.47760   0.17200  Uani   1.00
O140   O     0.60600   0.45730   0.55510   0.12200  Uani   1.00
O141   O     0.50580   0.14030   0.72287   0.06033  Uani   1.00
O142   O     0.51630   0.24750   0.66950   0.06200  Uani   1.00
O143   O     0.69910   0.82360   0.31031   0.05667  Uani   1.00
O144   O     0.85290   0.84990   0.32002   0.05733  Uani   1.00
C145   C     0.53520   0.17640   0.67850   0.05733  Uani   1.00
C146   C     0.58840   0.13210   0.63120   0.06033  Uani   1.00
C147   C     0.59580   0.05160   0.63620   0.07900  Uani   1.00
H148   H     0.57394   0.02604   0.66982   0.09500  Uiso   1.00
C149   C     0.63690   0.00880   0.58970   0.08433  Uani   1.00
C150   C     0.66920   0.04760   0.53900   0.07900  Uani   1.00
C151   C     0.66750   0.12760   0.53720   0.08833  Uani   1.00
H152   H     0.69529   0.15435   0.50590   0.10600  Uiso   1.00
C153   C     0.62470   0.16820   0.58200   0.08100  Uani   1.00
H154   H     0.62000   0.22244   0.57891   0.09700  Uiso   1.00
C155   C     0.70240   0.99820   0.48620   0.07933  Uani   1.00
C156   C     0.79290   0.99120   0.46790   0.08333  Uani   1.00
C157   C     0.81320   0.94710   0.41980   0.07967  Uani   1.00
H158   H     0.87610   0.94270   0.40810   0.09600  Uiso   1.00
C159   C     0.74510   0.90830   0.38710   0.05033  Uani   1.00
C160   C     0.65400   0.91770   0.40530   0.09933  Uani   1.00
H161   H     0.60497   0.89539   0.38357   0.11900  Uiso   1.00
C162   C     0.63410   0.95990   0.45540   0.09700  Uani   1.00
H163   H     0.57189   0.96227   0.46873   0.11700  Uiso   1.00
C164   C     0.76760   0.85750   0.33570   0.04833  Uani   1.00
S165   S     0.89310   0.05780   0.49140   0.10267  Uani   1.00
O166   O     0.98080   0.03420   0.46110   0.13367  Uani   1.00
O167   O     0.86640   0.13970   0.47760   0.17200  Uani   1.00
O168   O     0.89400   0.04270   0.55510   0.12200  Uani   1.00
O169   O     0.50580   0.35970   0.77713   0.06033  Uani   1.00
O170   O     0.51630   0.25250   0.83050   0.06200  Uani   1.00
O171   O     0.69910   0.67640   0.18969   0.05667  Uani   1.00
O172   O     0.85290   0.65010   0.17998   0.05733  Uani   1.00
C173   C     0.53520   0.32360   0.82150   0.05733  Uani   1.00
C174   C     0.58840   0.36790   0.86880   0.06033  Uani   1.00
C175   C     0.59580   0.44840   0.86380   0.07900  Uani   1.00
H176   H     0.57394   0.47396   0.83018   0.09500  Uiso   1.00
C177   C     0.63690   0.49120   0.91030   0.08433  Uani   1.00
C178   C     0.66920   0.45240   0.96100   0.07900  Uani   1.00
C179   C     0.66750   0.37240   0.96280   0.08833  Uani   1.00
H180   H     0.69529   0.34565   0.99410   0.10600  Uiso   1.00
C181   C     0.62470   0.33180   0.91800   0.08100  Uani   1.00
H182   H     0.62000   0.27756   0.92109   0.09700  Uiso   1.00
C183   C     0.70240   0.50180   0.01380   0.07933  Uani   1.00
C184   C     0.79290   0.50880   0.03210   0.08333  Uani   1.00
C185   C     0.81320   0.55290   0.08020   0.07967  Uani   1.00
H186   H     0.87610   0.55730   0.09190   0.09600  Uiso   1.00
C187   C     0.74510   0.59170   0.11290   0.05033  Uani   1.00
C188   C     0.65400   0.58230   0.09470   0.09933  Uani   1.00
H189   H     0.60497   0.60461   0.11643   0.11900  Uiso   1.00
C190   C     0.63410   0.54010   0.04460   0.09700  Uani   1.00
H191   H     0.57189   0.53773   0.03127   0.11700  Uiso   1.00
C192   C     0.76760   0.64250   0.16430   0.04833  Uani   1.00
S193   S     0.89310   0.44220   0.00860   0.10267  Uani   1.00
O194   O     0.98080   0.46580   0.03890   0.13367  Uani   1.00
O195   O     0.86640   0.36030   0.02240   0.17200  Uani   1.00
O196   O     0.89400   0.45730   0.94490   0.12200  Uani   1.00
O197   O     0.99420   0.14030   0.77713   0.06033  Uani   1.00
O198   O     0.98370   0.24750   0.83050   0.06200  Uani   1.00
O199   O     0.80090   0.82360   0.18969   0.05667  Uani   1.00
O200   O     0.64710   0.84990   0.17998   0.05733  Uani   1.00
C201   C     0.96480   0.17640   0.82150   0.05733  Uani   1.00
C202   C     0.91160   0.13210   0.86880   0.06033  Uani   1.00
C203   C     0.90420   0.05160   0.86380   0.07900  Uani   1.00
H204   H     0.92606   0.02604   0.83018   0.09500  Uiso   1.00
C205   C     0.86310   0.00880   0.91030   0.08433  Uani   1.00
C206   C     0.83080   0.04760   0.96100   0.07900  Uani   1.00
C207   C     0.83250   0.12760   0.96280   0.08833  Uani   1.00
H208   H     0.80471   0.15435   0.99410   0.10600  Uiso   1.00
C209   C     0.87530   0.16820   0.91800   0.08100  Uani   1.00
H210   H     0.88000   0.22244   0.92109   0.09700  Uiso   1.00
C211   C     0.79760   0.99820   0.01380   0.07933  Uani   1.00
C212   C     0.70710   0.99120   0.03210   0.08333  Uani   1.00
C213   C     0.68680   0.94710   0.08020   0.07967  Uani   1.00
H214   H     0.62390   0.94270   0.09190   0.09600  Uiso   1.00
C215   C     0.75490   0.90830   0.11290   0.05033  Uani   1.00
C216   C     0.84600   0.91770   0.09470   0.09933  Uani   1.00
H217   H     0.89503   0.89539   0.11643   0.11900  Uiso   1.00
C218   C     0.86590   0.95990   0.04460   0.09700  Uani   1.00
H219   H     0.92811   0.96227   0.03127   0.11700  Uiso   1.00
C220   C     0.73240   0.85750   0.16430   0.04833  Uani   1.00
S221   S     0.60690   0.05780   0.00860   0.10267  Uani   1.00
O222   O     0.51920   0.03420   0.03890   0.13367  Uani   1.00
O223   O     0.63360   0.13970   0.02240   0.17200  Uani   1.00
O224   O     0.60600   0.04270   0.94490   0.12200  Uani   1.00
Gd225  Gd    0.39845   0.25000   0.75000   0.03313  Uani   1.00
Gd226  Gd    0.10155   0.25000   0.75000   0.03313  Uani   1.00
Gd227  Gd    0.60155   0.75000   0.25000   0.03313  Uani   1.00
Gd228  Gd    0.89845   0.75000   0.25000   0.03313  Uani   1.00
loop_
_atom_site_aniso_label
_atom_site_aniso_U_11
_atom_site_aniso_U_22
_atom_site_aniso_U_33
_atom_site_aniso_U_12
_atom_site_aniso_U_13
_atom_site_aniso_U_23
O1        0.07000   0.07900   0.03200   0.01300  -0.00500   0.00100
O2        0.07100   0.06200   0.05300   0.00730  -0.02500   0.00540
O3        0.06100   0.06600   0.04300  -0.00900   0.01200   0.01400
O4        0.05900   0.07000   0.04300   0.00600  -0.00700   0.01600
C5        0.04200   0.08900   0.04100  -0.00100  -0.00200   0.01900
C6        0.05100   0.08400   0.04600   0.00700  -0.00200   0.02000
C7        0.07500   0.10300   0.05900   0.02300  -0.01300   0.00700
C9        0.07900   0.10300   0.07100   0.01300   0.00000   0.04200
C10       0.05700   0.12200   0.05800   0.01900  -0.00900   0.03900
C11       0.09000   0.10000   0.07500  -0.00100  -0.01500   0.01200
C13       0.08400   0.08500   0.07400   0.00900  -0.02200   0.01000
C15       0.07200   0.10300   0.06300   0.00600   0.00800   0.03200
C16       0.05300   0.12700   0.07000   0.00500   0.00500   0.05200
C17       0.04300   0.12600   0.07000  -0.02000  -0.00600   0.05600
C19       0.04500   0.06600   0.04000   0.00200  -0.00500   0.01800
C20       0.05500   0.14600   0.09700  -0.01000  -0.00200   0.07400
C22       0.07600   0.12100   0.09400   0.00400  -0.00900   0.03900
C24       0.06800   0.04500   0.03200   0.00200  -0.00400   0.00800
S25       0.09200   0.11300   0.10300  -0.01500  -0.00600   0.02300
O26       0.12200   0.14800   0.13100   0.00700  -0.02000   0.01600
O27       0.17400   0.16600   0.17600  -0.00500  -0.00100  -0.00300
O28       0.11700   0.13600   0.11300  -0.01300   0.02200   0.02800
O29       0.07000   0.07900   0.03200   0.01300   0.00500  -0.00100
O30       0.07100   0.06200   0.05300   0.00730   0.02500  -0.00540
O31       0.06100   0.06600   0.04300  -0.00900  -0.01200  -0.01400
O32       0.05900   0.07000   0.04300   0.00600   0.00700  -0.01600
C33       0.04200   0.08900   0.04100  -0.00100   0.00200  -0.01900
C34       0.05100   0.08400   0.04600   0.00700   0.00200  -0.02000
C35       0.07500   0.10300   0.05900   0.02300   0.01300  -0.00700
C37       0.07900   0.10300   0.07100   0.01300   0.00000  -0.04200
C38       0.05700   0.12200   0.05800   0.01900   0.00900  -0.03900
C39       0.09000   0.10000   0.07500  -0.00100   0.01500  -0.01200
C41       0.08400   0.08500   0.07400   0.00900   0.02200  -0.01000
C43       0.07200   0.10300   0.06300   0.00600  -0.00800  -0.03200
C44       0.05300   0.12700   0.07000   0.00500  -0.00500  -0.05200
C45       0.04300   0.12600   0.07000  -0.02000   0.00600  -0.05600
C47       0.04500   0.06600   0.04000   0.00200   0.00500  -0.01800
C48       0.05500   0.14600   0.09700  -0.01000   0.00200  -0.07400
C50       0.07600   0.12100   0.09400   0.00400   0.00900  -0.03900
C52       0.06800   0.04500   0.03200   0.00200   0.00400  -0.00800
S53       0.09200   0.11300   0.10300  -0.01500   0.00600  -0.02300
O54       0.12200   0.14800   0.13100   0.00700   0.02000  -0.01600
O55       0.17400   0.16600   0.17600  -0.00500   0.00100   0.00300
O56       0.11700   0.13600   0.11300  -0.01300  -0.02200  -0.02800
O57       0.07000   0.07900   0.03200  -0.01300  -0.00500  -0.00100
O58       0.07100   0.06200   0.05300  -0.00730  -0.02500  -0.00540
O59       0.06100   0.06600   0.04300   0.00900   0.01200  -0.01400
O60       0.05900   0.07000   0.04300  -0.00600  -0.00700  -0.01600
C61       0.04200   0.08900   0.04100   0.00100  -0.00200  -0.01900
C62       0.05100   0.08400   0.04600  -0.00700  -0.00200  -0.02000
C63       0.07500   0.10300   0.05900  -0.02300  -0.01300  -0.00700
C65       0.07900   0.10300   0.07100  -0.01300   0.00000  -0.04200
C66       0.05700   0.12200   0.05800  -0.01900  -0.00900  -0.03900
C67       0.09000   0.10000   0.07500   0.00100  -0.01500  -0.01200
C69       0.08400   0.08500   0.07400  -0.00900  -0.02200  -0.01000
C71       0.07200   0.10300   0.06300  -0.00600   0.00800  -0.03200
C72       0.05300   0.12700   0.07000  -0.00500   0.00500  -0.05200
C73       0.04300   0.12600   0.07000   0.02000  -0.00600  -0.05600
C75       0.04500   0.06600   0.04000  -0.00200  -0.00500  -0.01800
C76       0.05500   0.14600   0.09700   0.01000  -0.00200  -0.07400
C78       0.07600   0.12100   0.09400  -0.00400  -0.00900  -0.03900
C80       0.06800   0.04500   0.03200  -0.00200  -0.00400  -0.00800
S81       0.09200   0.11300   0.10300   0.01500  -0.00600  -0.02300
O82       0.12200   0.14800   0.13100  -0.00700  -0.02000  -0.01600
O83       0.17400   0.16600   0.17600   0.00500  -0.00100   0.00300
O84       0.11700   0.13600   0.11300   0.01300   0.02200  -0.02800
O85       0.07000   0.07900   0.03200  -0.01300   0.00500   0.00100
O86       0.07100   0.06200   0.05300  -0.00730   0.02500   0.00540
O87       0.06100   0.06600   0.04300   0.00900  -0.01200   0.01400
O88       0.05900   0.07000   0.04300  -0.00600   0.00700   0.01600
C89       0.04200   0.08900   0.04100   0.00100   0.00200   0.01900
C90       0.05100   0.08400   0.04600  -0.00700   0.00200   0.02000
C91       0.07500   0.10300   0.05900  -0.02300   0.01300   0.00700
C93       0.07900   0.10300   0.07100  -0.01300   0.00000   0.04200
C94       0.05700   0.12200   0.05800  -0.01900   0.00900   0.03900
C95       0.09000   0.10000   0.07500   0.00100   0.01500   0.01200
C97       0.08400   0.08500   0.07400  -0.00900   0.02200   0.01000
C99       0.07200   0.10300   0.06300  -0.00600  -0.00800   0.03200
C100      0.05300   0.12700   0.07000  -0.00500  -0.00500   0.05200
C101      0.04300   0.12600   0.07000   0.02000   0.00600   0.05600
C103      0.04500   0.06600   0.04000  -0.00200   0.00500   0.01800
C104      0.05500   0.14600   0.09700   0.01000   0.00200   0.07400
C106      0.07600   0.12100   0.09400  -0.00400   0.00900   0.03900
C108      0.06800   0.04500   0.03200  -0.00200   0.00400   0.00800
S109      0.09200   0.11300   0.10300   0.01500   0.00600   0.02300
O110      0.12200   0.14800   0.13100  -0.00700   0.02000   0.01600
O111      0.17400   0.16600   0.17600   0.00500   0.00100  -0.00300
O112      0.11700   0.13600   0.11300   0.01300  -0.02200   0.02800
O113      0.07000   0.07900   0.03200   0.01300  -0.00500   0.00100
O114      0.07100   0.06200   0.05300   0.00730  -0.02500   0.00540
O115      0.06100   0.06600   0.04300  -0.00900   0.01200   0.01400
O116      0.05900   0.07000   0.04300   0.00600  -0.00700   0.01600
C117      0.04200   0.08900   0.04100  -0.00100  -0.00200   0.01900
C118      0.05100   0.08400   0.04600   0.00700  -0.00200   0.02000
C119      0.07500   0.10300   0.05900   0.02300  -0.01300   0.00700
C121      0.07900   0.10300   0.07100   0.01300   0.00000   0.04200
C122      0.05700   0.12200   0.05800   0.01900  -0.00900   0.03900
C123      0.09000   0.10000   0.07500  -0.00100  -0.01500   0.01200
C125      0.08400   0.08500   0.07400   0.00900  -0.02200   0.01000
C127      0.07200   0.10300   0.06300   0.00600   0.00800   0.03200
C128      0.05300   0.12700   0.07000   0.00500   0.00500   0.05200
C129      0.04300   0.12600   0.07000  -0.02000  -0.00600   0.05600
C131      0.04500   0.06600   0.04000   0.00200  -0.00500   0.01800
C132      0.05500   0.14600   0.09700  -0.01000  -0.00200   0.07400
C134      0.07600   0.12100   0.09400   0.00400  -0.00900   0.03900
C136      0.06800   0.04500   0.03200   0.00200  -0.00400   0.00800
S137      0.09200   0.11300   0.10300  -0.01500  -0.00600   0.02300
O138      0.12200   0.14800   0.13100   0.00700  -0.02000   0.01600
O139      0.17400   0.16600   0.17600  -0.00500  -0.00100  -0.00300
O140      0.11700   0.13600   0.11300  -0.01300   0.02200   0.02800
O141      0.07000   0.07900   0.03200   0.01300   0.00500  -0.00100
O142      0.07100   0.06200   0.05300   0.00730   0.02500  -0.00540
O143      0.06100   0.06600   0.04300  -0.00900  -0.01200  -0.01400
O144      0.05900   0.07000   0.04300   0.00600   0.00700  -0.01600
C145      0.04200   0.08900   0.04100  -0.00100   0.00200  -0.01900
C146      0.05100   0.08400   0.04600   0.00700   0.00200  -0.02000
C147      0.07500   0.10300   0.05900   0.02300   0.01300  -0.00700
C149      0.07900   0.10300   0.07100   0.01300   0.00000  -0.04200
C150      0.05700   0.12200   0.05800   0.01900   0.00900  -0.03900
C151      0.09000   0.10000   0.07500  -0.00100   0.01500  -0.01200
C153      0.08400   0.08500   0.07400   0.00900   0.02200  -0.01000
C155      0.07200   0.10300   0.06300   0.00600  -0.00800  -0.03200
C156      0.05300   0.12700   0.07000   0.00500  -0.00500  -0.05200
C157      0.04300   0.12600   0.07000  -0.02000   0.00600  -0.05600
C159      0.04500   0.06600   0.04000   0.00200   0.00500  -0.01800
C160      0.05500   0.14600   0.09700  -0.01000   0.00200  -0.07400
C162      0.07600   0.12100   0.09400   0.00400   0.00900  -0.03900
C164      0.06800   0.04500   0.03200   0.00200   0.00400  -0.00800
S165      0.09200   0.11300   0.10300  -0.01500   0.00600  -0.02300
O166      0.12200   0.14800   0.13100   0.00700   0.02000  -0.01600
O167      0.17400   0.16600   0.17600  -0.00500   0.00100   0.00300
O168      0.11700   0.13600   0.11300  -0.01300  -0.02200  -0.02800
O169      0.07000   0.07900   0.03200  -0.01300  -0.00500  -0.00100
O170      0.07100   0.06200   0.05300  -0.00730  -0.02500  -0.00540
O171      0.06100   0.06600   0.04300   0.00900   0.01200  -0.01400
O172      0.05900   0.07000   0.04300  -0.00600  -0.00700  -0.01600
C173      0.04200   0.08900   0.04100   0.00100  -0.00200  -0.01900
C174      0.05100   0.08400   0.04600  -0.00700  -0.00200  -0.02000
C175      0.07500   0.10300   0.05900  -0.02300  -0.01300  -0.00700
C177      0.07900   0.10300   0.07100  -0.01300   0.00000  -0.04200
C178      0.05700   0.12200   0.05800  -0.01900  -0.00900  -0.03900
C179      0.09000   0.10000   0.07500   0.00100  -0.01500  -0.01200
C181      0.08400   0.08500   0.07400  -0.00900  -0.02200  -0.01000
C183      0.07200   0.10300   0.06300  -0.00600   0.00800  -0.03200
C184      0.05300   0.12700   0.07000  -0.00500   0.00500  -0.05200
C185      0.04300   0.12600   0.07000   0.02000  -0.00600  -0.05600
C187      0.04500   0.06600   0.04000  -0.00200  -0.00500  -0.01800
C188      0.05500   0.14600   0.09700   0.01000  -0.00200  -0.07400
C190      0.07600   0.12100   0.09400  -0.00400  -0.00900  -0.03900
C192      0.06800   0.04500   0.03200  -0.00200  -0.00400  -0.00800
S193      0.09200   0.11300   0.10300   0.01500  -0.00600  -0.02300
O194      0.12200   0.14800   0.13100  -0.00700  -0.02000  -0.01600
O195      0.17400   0.16600   0.17600   0.00500  -0.00100   0.00300
O196      0.11700   0.13600   0.11300   0.01300   0.02200  -0.02800
O197      0.07000   0.07900   0.03200  -0.01300   0.00500   0.00100
O198      0.07100   0.06200   0.05300  -0.00730   0.02500   0.00540
O199      0.06100   0.06600   0.04300   0.00900  -0.01200   0.01400
O200      0.05900   0.07000   0.04300  -0.00600   0.00700   0.01600
C201      0.04200   0.08900   0.04100   0.00100   0.00200   0.01900
C202      0.05100   0.08400   0.04600  -0.00700   0.00200   0.02000
C203      0.07500   0.10300   0.05900  -0.02300   0.01300   0.00700
C205      0.07900   0.10300   0.07100  -0.01300   0.00000   0.04200
C206      0.05700   0.12200   0.05800  -0.01900   0.00900   0.03900
C207      0.09000   0.10000   0.07500   0.00100   0.01500   0.01200
C209      0.08400   0.08500   0.07400  -0.00900   0.02200   0.01000
C211      0.07200   0.10300   0.06300  -0.00600  -0.00800   0.03200
C212      0.05300   0.12700   0.07000  -0.00500  -0.00500   0.05200
C213      0.04300   0.12600   0.07000   0.02000   0.00600   0.05600
C215      0.04500   0.06600   0.04000  -0.00200   0.00500   0.01800
C216      0.05500   0.14600   0.09700   0.01000   0.00200   0.07400
C218      0.07600   0.12100   0.09400  -0.00400   0.00900   0.03900
C220      0.06800   0.04500   0.03200  -0.00200   0.00400   0.00800
S221      0.09200   0.11300   0.10300   0.01500   0.00600   0.02300
O222      0.12200   0.14800   0.13100  -0.00700   0.02000   0.01600
O223      0.17400   0.16600   0.17600   0.00500   0.00100  -0.00300
O224      0.11700   0.13600   0.11300   0.01300  -0.02200   0.02800
Gd225     0.03620   0.04080   0.02240   0.00000   0.00000  -0.00185
Gd226     0.03620   0.04080   0.02240   0.00000   0.00000   0.00185
Gd227     0.03620   0.04080   0.02240   0.00000   0.00000  -0.00185
Gd228     0.03620   0.04080   0.02240   0.00000   0.00000   0.00185
loop_
_geom_bond_atom_site_label_1
_geom_bond_atom_site_label_2
_geom_bond_distance
_geom_bond_site_symmetry_2
_ccdc_geom_bond_type
O1     C5      1.249   .     S
O1     Gd228   2.485   1_455 S
O2     C5      1.257   .     S
O2     Gd228   2.469   1_455 S
O3     C24     1.265   .     S
O3     Gd226   2.310   .     S
O4     Gd225   2.413   .     S
O4     C24     1.263   .     S
C5     C6      1.510   .     S
C6     C7      1.380   .     S
C6     C13     1.372   .     S
C7     H8      0.930   .     S
C7     C9      1.406   .     S
C9     C10     1.401   .     S
C10    C11     1.364   .     S
C10    C15     1.535   .     S
C11    H12     0.930   .     S
C11    C13     1.369   .     S
C13    H14     0.929   .     S
C15    C16     1.350   .     S
C15    C22     1.358   .     S
C16    C17     1.354   .     S
C16    S25     1.891   .     S
C17    H18     0.931   .     S
C17    C19     1.382   .     S
C19    C20     1.361   .     S
C19    C24     1.485   .     S
C20    H21     0.931   .     S
C20    C22     1.372   .     S
C22    H23     0.930   .     S
S25    O26     1.472   .     S
S25    O27     1.479   .     S
S25    O28     1.465   .     S
O29    C33     1.249   .     S
O29    Gd227   2.485   .     S
O30    C33     1.257   .     S
O30    Gd227   2.469   .     S
O31    C52     1.265   .     S
O31    Gd225   2.310   .     S
O32    Gd226   2.413   .     S
O32    C52     1.263   .     S
C33    C34     1.510   .     S
C34    C35     1.380   .     S
C34    C41     1.372   .     S
C35    H36     0.930   .     S
C35    C37     1.406   .     S
C37    C38     1.401   .     S
C38    C39     1.364   .     S
C38    C43     1.535   1_565 S
C39    H40     0.930   .     S
C39    C41     1.369   .     S
C41    H42     0.929   .     S
C43    C38     1.535   1_545 S
C43    C44     1.350   .     S
C43    C50     1.358   .     S
C44    C45     1.354   .     S
C44    S53     1.891   1_545 S
C45    H46     0.931   .     S
C45    C47     1.382   .     S
C47    C48     1.361   .     S
C47    C52     1.485   .     S
C48    H49     0.931   .     S
C48    C50     1.372   .     S
C50    H51     0.930   .     S
S53    C44     1.891   1_565 S
S53    O54     1.472   .     S
S53    O55     1.479   .     S
S53    O56     1.465   .     S
O57    C61     1.249   .     S
O57    Gd227   2.485   .     S
O58    C61     1.257   .     S
O58    Gd227   2.469   .     S
O59    C80     1.265   .     S
O59    Gd225   2.310   .     S
O60    Gd226   2.413   .     S
O60    C80     1.263   .     S
C61    C62     1.510   .     S
C62    C63     1.380   .     S
C62    C69     1.372   .     S
C63    H64     0.930   .     S
C63    C65     1.406   .     S
C65    C66     1.401   .     S
C66    C67     1.364   .     S
C66    C71     1.535   1_554 S
C67    H68     0.930   .     S
C67    C69     1.369   .     S
C69    H70     0.929   .     S
C71    C66     1.535   1_556 S
C71    C72     1.350   .     S
C71    C78     1.358   .     S
C72    C73     1.354   .     S
C72    S81     1.891   .     S
C73    H74     0.931   .     S
C73    C75     1.382   .     S
C75    C76     1.361   .     S
C75    C80     1.485   .     S
C76    H77     0.931   .     S
C76    C78     1.372   .     S
C78    H79     0.930   .     S
S81    O82     1.472   .     S
S81    O83     1.479   .     S
S81    O84     1.465   1_556 S
O84    S81     1.465   1_554 S
O85    C89     1.249   .     S
O85    Gd228   2.485   1_455 S
O86    C89     1.257   .     S
O86    Gd228   2.469   1_455 S
O87    C108    1.265   .     S
O87    Gd226   2.310   .     S
O88    Gd225   2.413   .     S
O88    C108    1.263   .     S
C89    C90     1.510   .     S
C90    C91     1.380   .     S
C90    C97     1.372   .     S
C91    H92     0.930   .     S
C91    C93     1.406   .     S
C93    C94     1.401   .     S
C94    C95     1.364   .     S
C94    C99     1.535   1_564 S
C95    H96     0.930   .     S
C95    C97     1.369   .     S
C97    H98     0.929   .     S
C99    C94     1.535   1_546 S
C99    C100    1.350   .     S
C99    C106    1.358   .     S
C100   C101    1.354   .     S
C100   S109    1.891   1_545 S
C101   H102    0.931   .     S
C101   C103    1.382   .     S
C103   C104    1.361   .     S
C103   C108    1.485   .     S
C104   H105    0.931   .     S
C104   C106    1.372   .     S
C106   H107    0.930   .     S
S109   C100    1.891   1_565 S
S109   O110    1.472   .     S
S109   O111    1.479   .     S
S109   O112    1.465   1_556 S
O112   S109    1.465   1_554 S
O113   C117    1.249   .     S
O113   Gd226   2.485   1_655 S
O114   C117    1.257   .     S
O114   Gd226   2.469   1_655 S
O115   C136    1.265   .     S
O115   Gd228   2.310   .     S
O116   Gd227   2.413   .     S
O116   C136    1.263   .     S
C117   C118    1.510   .     S
C118   C119    1.380   .     S
C118   C125    1.372   .     S
C119   H120    0.930   .     S
C119   C121    1.406   .     S
C121   C122    1.401   .     S
C122   C123    1.364   .     S
C122   C127    1.535   .     S
C123   H124    0.930   .     S
C123   C125    1.369   .     S
C125   H126    0.929   .     S
C127   C128    1.350   .     S
C127   C134    1.358   .     S
C128   C129    1.354   .     S
C128   S137    1.891   .     S
C129   H130    0.931   .     S
C129   C131    1.382   .     S
C131   C132    1.361   .     S
C131   C136    1.485   .     S
C132   H133    0.931   .     S
C132   C134    1.372   .     S
C134   H135    0.930   .     S
S137   O138    1.472   .     S
S137   O139    1.479   .     S
S137   O140    1.465   .     S
O141   C145    1.249   .     S
O141   Gd225   2.485   .     S
O142   C145    1.257   .     S
O142   Gd225   2.469   .     S
O143   C164    1.265   .     S
O143   Gd227   2.310   .     S
O144   Gd228   2.413   .     S
O144   C164    1.263   .     S
C145   C146    1.510   .     S
C146   C147    1.380   .     S
C146   C153    1.372   .     S
C147   H148    0.930   .     S
C147   C149    1.406   .     S
C149   C150    1.401   .     S
C150   C151    1.364   .     S
C150   C155    1.535   1_545 S
C151   H152    0.930   .     S
C151   C153    1.369   .     S
C153   H154    0.929   .     S
C155   C150    1.535   1_565 S
C155   C156    1.350   .     S
C155   C162    1.358   .     S
C156   C157    1.354   .     S
C156   S165    1.891   1_565 S
C157   H158    0.931   .     S
C157   C159    1.382   .     S
C159   C160    1.361   .     S
C159   C164    1.485   .     S
C160   H161    0.931   .     S
C160   C162    1.372   .     S
C162   H163    0.930   .     S
S165   C156    1.891   1_545 S
S165   O166    1.472   .     S
S165   O167    1.479   .     S
S165   O168    1.465   .     S
O169   C173    1.249   .     S
O169   Gd225   2.485   .     S
O170   C173    1.257   .     S
O170   Gd225   2.469   .     S
O171   C192    1.265   .     S
O171   Gd227   2.310   .     S
O172   Gd228   2.413   .     S
O172   C192    1.263   .     S
C173   C174    1.510   .     S
C174   C175    1.380   .     S
C174   C181    1.372   .     S
C175   H176    0.930   .     S
C175   C177    1.406   .     S
C177   C178    1.401   .     S
C178   C179    1.364   .     S
C178   C183    1.535   1_556 S
C179   H180    0.930   .     S
C179   C181    1.369   .     S
C181   H182    0.929   .     S
C183   C178    1.535   1_554 S
C183   C184    1.350   .     S
C183   C190    1.358   .     S
C184   C185    1.354   .     S
C184   S193    1.891   .     S
C185   H186    0.931   .     S
C185   C187    1.382   .     S
C187   C188    1.361   .     S
C187   C192    1.485   .     S
C188   H189    0.931   .     S
C188   C190    1.372   .     S
C190   H191    0.930   .     S
S193   O194    1.472   .     S
S193   O195    1.479   .     S
S193   O196    1.465   1_554 S
O196   S193    1.465   1_556 S
O197   C201    1.249   .     S
O197   Gd226   2.485   1_655 S
O198   C201    1.257   .     S
O198   Gd226   2.469   1_655 S
O199   C220    1.265   .     S
O199   Gd228   2.310   .     S
O200   Gd227   2.413   .     S
O200   C220    1.263   .     S
C201   C202    1.510   .     S
C202   C203    1.380   .     S
C202   C209    1.372   .     S
C203   H204    0.930   .     S
C203   C205    1.406   .     S
C205   C206    1.401   .     S
C206   C207    1.364   .     S
C206   C211    1.535   1_546 S
C207   H208    0.930   .     S
C207   C209    1.369   .     S
C209   H210    0.929   .     S
C211   C206    1.535   1_564 S
C211   C212    1.350   .     S
C211   C218    1.358   .     S
C212   C213    1.354   .     S
C212   S221    1.891   1_565 S
C213   H214    0.931   .     S
C213   C215    1.382   .     S
C215   C216    1.361   .     S
C215   C220    1.485   .     S
C216   H217    0.931   .     S
C216   C218    1.372   .     S
C218   H219    0.930   .     S
S221   C212    1.891   1_545 S
S221   O222    1.472   .     S
S221   O223    1.479   .     S
S221   O224    1.465   1_554 S
O224   S221    1.465   1_556 S
Gd226  O113    2.485   1_455 S
Gd226  O197    2.485   1_455 S
Gd226  O114    2.469   1_455 S
Gd226  O198    2.469   1_455 S
Gd228  O1      2.485   1_655 S
Gd228  O85     2.485   1_655 S
Gd228  O2      2.469   1_655 S
Gd228  O86     2.469   1_655 S
