data_GEGPAM_FSR
_audit_creation_date              2024-06-11
_audit_creation_method            'Materials Studio'
_symmetry_space_group_name_H-M    'P1'
_symmetry_Int_Tables_number       1
_symmetry_cell_setting            triclinic
loop_
_symmetry_equiv_pos_as_xyz
  x,y,z
_cell_length_a                    10.0342
_cell_length_b                    15.3556
_cell_length_c                    9.2771
_cell_angle_alpha                 90.0000
_cell_angle_beta                  90.5490
_cell_angle_gamma                 90.0000
loop_
_atom_site_label
_atom_site_type_symbol
_atom_site_fract_x
_atom_site_fract_y
_atom_site_fract_z
_atom_site_U_iso_or_equiv
_atom_site_adp_type
_atom_site_occupancy
Eu1    Eu   -0.09301   0.33666   0.00507   0.00000  Uiso   1.00
O2     O     0.05300   0.35680   0.20500   0.00000  Uiso   1.00
O3     O     0.01090   0.27950   0.39810   0.00000  Uiso   1.00
O4     O     0.06050   0.41520   0.87680   0.00000  Uiso   1.00
O5     O     0.18280   0.53600   0.90070   0.00000  Uiso   1.00
O6     O     0.22300   0.74150   0.38030   0.00000  Uiso   1.00
O7     O     0.25190   0.64520   0.16120   0.00000  Uiso   1.00
O8     O     0.44280   0.73770   0.25090   0.00000  Uiso   1.00
P9     P     0.31810   0.68670   0.29180   0.00000  Uiso   1.00
C10    C     0.05800   0.34630   0.34000   0.00000  Uiso   1.00
C11    C     0.12500   0.41330   0.43200   0.00000  Uiso   1.00
C12    C     0.09900   0.41210   0.58140   0.00000  Uiso   1.00
H13    H     0.03960   0.37070   0.62110   0.00000  Uiso   1.00
C14    C     0.16300   0.47270   0.66800   0.00000  Uiso   1.00
C15    C     0.25200   0.53420   0.60700   0.00000  Uiso   1.00
H16    H     0.29420   0.57590   0.66800   0.00000  Uiso   1.00
C17    C     0.27980   0.53520   0.46200   0.00000  Uiso   1.00
C18    C     0.21010   0.47350   0.37320   0.00000  Uiso   1.00
H19    H     0.22280   0.47420   0.27180   0.00000  Uiso   1.00
C20    C     0.37900   0.59680   0.40200   0.00000  Uiso   1.00
H21    H     0.44190   0.56270   0.34270   0.00000  Uiso   1.00
H22    H     0.43020   0.62170   0.48330   0.00000  Uiso   1.00
C23    C     0.13200   0.47670   0.82480   0.00000  Uiso   1.00
Eu24   Eu    0.09301   0.83666   0.49493   0.00000  Uiso   1.00
O25    O    -0.05300   0.85680   0.29500   0.00000  Uiso   1.00
O26    O    -0.01090   0.77950   0.10190   0.00000  Uiso   1.00
O27    O    -0.06050   0.91520   0.62320   0.00000  Uiso   1.00
O28    O    -0.18280   0.03600   0.59930   0.00000  Uiso   1.00
O29    O    -0.22300   0.24150   0.11970   0.00000  Uiso   1.00
O30    O    -0.25190   0.14520   0.33880   0.00000  Uiso   1.00
O31    O    -0.44280   0.23770   0.24910   0.00000  Uiso   1.00
P32    P    -0.31810   0.18670   0.20820   0.00000  Uiso   1.00
C33    C    -0.05800   0.84630   0.16000   0.00000  Uiso   1.00
C34    C    -0.12500   0.91330   0.06800   0.00000  Uiso   1.00
C35    C    -0.09900   0.91210   0.91860   0.00000  Uiso   1.00
H36    H    -0.03960   0.87070   0.87890   0.00000  Uiso   1.00
C37    C    -0.16300   0.97270   0.83200   0.00000  Uiso   1.00
C38    C    -0.25200   0.03420   0.89300   0.00000  Uiso   1.00
H39    H    -0.29420   0.07590   0.83200   0.00000  Uiso   1.00
C40    C    -0.27980   0.03520   0.03800   0.00000  Uiso   1.00
C41    C    -0.21010   0.97350   0.12680   0.00000  Uiso   1.00
H42    H    -0.22280   0.97420   0.22820   0.00000  Uiso   1.00
C43    C    -0.37900   0.09680   0.09800   0.00000  Uiso   1.00
H44    H    -0.44190   0.06270   0.15730   0.00000  Uiso   1.00
H45    H    -0.43020   0.12170   0.01670   0.00000  Uiso   1.00
C46    C    -0.13200   0.97670   0.67520   0.00000  Uiso   1.00
Eu47   Eu    0.09301   0.66334   0.99493   0.00000  Uiso   1.00
O48    O    -0.05300   0.64320   0.79500   0.00000  Uiso   1.00
O49    O    -0.01090   0.72050   0.60190   0.00000  Uiso   1.00
O50    O    -0.06050   0.58480   0.12320   0.00000  Uiso   1.00
O51    O    -0.18280   0.46400   0.09930   0.00000  Uiso   1.00
O52    O    -0.22300   0.25850   0.61970   0.00000  Uiso   1.00
O53    O    -0.25190   0.35480   0.83880   0.00000  Uiso   1.00
O54    O    -0.44280   0.26230   0.74910   0.00000  Uiso   1.00
P55    P    -0.31810   0.31330   0.70820   0.00000  Uiso   1.00
C56    C    -0.05800   0.65370   0.66000   0.00000  Uiso   1.00
C57    C    -0.12500   0.58670   0.56800   0.00000  Uiso   1.00
C58    C    -0.09900   0.58790   0.41860   0.00000  Uiso   1.00
H59    H    -0.03960   0.62930   0.37890   0.00000  Uiso   1.00
C60    C    -0.16300   0.52730   0.33200   0.00000  Uiso   1.00
C61    C    -0.25200   0.46580   0.39300   0.00000  Uiso   1.00
H62    H    -0.29420   0.42410   0.33200   0.00000  Uiso   1.00
C63    C    -0.27980   0.46480   0.53800   0.00000  Uiso   1.00
C64    C    -0.21010   0.52650   0.62680   0.00000  Uiso   1.00
H65    H    -0.22280   0.52580   0.72820   0.00000  Uiso   1.00
C66    C    -0.37900   0.40320   0.59800   0.00000  Uiso   1.00
H67    H    -0.44190   0.43730   0.65730   0.00000  Uiso   1.00
H68    H    -0.43020   0.37830   0.51670   0.00000  Uiso   1.00
C69    C    -0.13200   0.52330   0.17520   0.00000  Uiso   1.00
Eu70   Eu   -0.09301   0.16334   0.50507   0.00000  Uiso   1.00
O71    O     0.05300   0.14320   0.70500   0.00000  Uiso   1.00
O72    O     0.01090   0.22050   0.89810   0.00000  Uiso   1.00
O73    O     0.06050   0.08480   0.37680   0.00000  Uiso   1.00
O74    O     0.18280   0.96400   0.40070   0.00000  Uiso   1.00
O75    O     0.22300   0.75850   0.88030   0.00000  Uiso   1.00
O76    O     0.25190   0.85480   0.66120   0.00000  Uiso   1.00
O77    O     0.44280   0.76230   0.75090   0.00000  Uiso   1.00
P78    P     0.31810   0.81330   0.79180   0.00000  Uiso   1.00
C79    C     0.05800   0.15370   0.84000   0.00000  Uiso   1.00
C80    C     0.12500   0.08670   0.93200   0.00000  Uiso   1.00
C81    C     0.09900   0.08790   0.08140   0.00000  Uiso   1.00
H82    H     0.03960   0.12930   0.12110   0.00000  Uiso   1.00
C83    C     0.16300   0.02730   0.16800   0.00000  Uiso   1.00
C84    C     0.25200   0.96580   0.10700   0.00000  Uiso   1.00
H85    H     0.29420   0.92410   0.16800   0.00000  Uiso   1.00
C86    C     0.27980   0.96480   0.96200   0.00000  Uiso   1.00
C87    C     0.21010   0.02650   0.87320   0.00000  Uiso   1.00
H88    H     0.22280   0.02580   0.77180   0.00000  Uiso   1.00
C89    C     0.37900   0.90320   0.90200   0.00000  Uiso   1.00
H90    H     0.44190   0.93730   0.84270   0.00000  Uiso   1.00
H91    H     0.43020   0.87830   0.98330   0.00000  Uiso   1.00
C92    C     0.13200   0.02330   0.32480   0.00000  Uiso   1.00
loop_
_geom_bond_atom_site_label_1
_geom_bond_atom_site_label_2
_geom_bond_distance
_geom_bond_site_symmetry_2
_ccdc_geom_bond_type
Eu1    O2      2.373   .     S
Eu1    O72     2.296   1_554 S
Eu1    O4      2.297   1_554 S
Eu1    O51     2.327   .     S
Eu1    O29     2.235   .     S
Eu1    O53     2.225   1_554 S
O2     C10     1.263   .     S
O3     C10     1.253   .     S
O3     Eu70    2.296   .     S
O4     C23     1.283   .     S
O4     Eu1     2.297   1_556 S
O5     C23     1.256   .     S
O5     Eu47    2.327   .     S
O6     P9      1.519   .     S
O6     Eu24    2.235   .     S
O7     P9      1.517   .     S
O7     Eu47    2.225   1_554 S
O8     P9      1.527   .     S
P9     C20     1.820   .     S
C10    C11     1.493   .     S
C11    C12     1.413   .     S
C11    C18     1.375   .     S
C12    H13     0.948   .     S
C12    C14     1.383   .     S
C14    C15     1.421   .     S
C14    C23     1.492   .     S
C15    H16     0.951   .     S
C15    C17     1.376   .     S
C17    C20     1.485   .     S
C17    C18     1.433   .     S
C18    H19     0.951   .     S
C20    H21     0.991   .     S
C20    H22     0.986   .     S
Eu24   O25     2.373   .     S
Eu24   O49     2.296   .     S
Eu24   O27     2.297   .     S
Eu24   O74     2.327   .     S
Eu24   O76     2.225   .     S
O25    C33     1.263   .     S
O26    C33     1.253   .     S
O26    Eu47    2.296   1_554 S
O27    C46     1.283   .     S
O28    C46     1.256   1_545 S
O28    Eu70    2.327   .     S
O29    P32     1.519   .     S
O30    P32     1.517   .     S
O30    Eu70    2.225   .     S
O31    P32     1.527   .     S
P32    C43     1.820   .     S
C33    C34     1.493   .     S
C34    C35     1.413   1_554 S
C34    C41     1.375   .     S
C35    C34     1.413   1_556 S
C35    H36     0.948   .     S
C35    C37     1.383   .     S
C37    C38     1.421   1_565 S
C37    C46     1.492   .     S
C38    C37     1.421   1_545 S
C38    H39     0.951   .     S
C38    C40     1.376   1_556 S
C40    C38     1.376   1_554 S
C40    C43     1.485   .     S
C40    C41     1.433   1_545 S
C41    H42     0.951   .     S
C41    C40     1.433   1_565 S
C43    H44     0.991   .     S
C43    H45     0.986   .     S
C46    O28     1.256   1_565 S
Eu47   O48     2.373   .     S
Eu47   O26     2.296   1_556 S
Eu47   O50     2.297   1_556 S
Eu47   O75     2.235   .     S
Eu47   O7      2.225   1_556 S
O48    C56     1.263   .     S
O49    C56     1.253   .     S
O50    C69     1.283   .     S
O50    Eu47    2.297   1_554 S
O51    C69     1.256   .     S
O52    P55     1.519   .     S
O52    Eu70    2.235   .     S
O53    P55     1.517   .     S
O53    Eu1     2.225   1_556 S
O54    P55     1.527   .     S
P55    C66     1.820   .     S
C56    C57     1.493   .     S
C57    C58     1.413   .     S
C57    C64     1.375   .     S
C58    H59     0.948   .     S
C58    C60     1.383   .     S
C60    C61     1.421   .     S
C60    C69     1.492   .     S
C61    H62     0.951   .     S
C61    C63     1.376   .     S
C63    C66     1.485   .     S
C63    C64     1.433   .     S
C64    H65     0.951   .     S
C66    H67     0.991   .     S
C66    H68     0.986   .     S
Eu70   O71     2.373   .     S
Eu70   O73     2.297   .     S
O71    C79     1.263   .     S
O72    C79     1.253   .     S
O72    Eu1     2.296   1_556 S
O73    C92     1.283   .     S
O74    C92     1.256   1_565 S
O75    P78     1.519   .     S
O76    P78     1.517   .     S
O77    P78     1.527   .     S
P78    C89     1.820   .     S
C79    C80     1.493   .     S
C80    C81     1.413   1_556 S
C80    C87     1.375   .     S
C81    C80     1.413   1_554 S
C81    H82     0.948   .     S
C81    C83     1.383   .     S
C83    C84     1.421   1_545 S
C83    C92     1.492   .     S
C84    C83     1.421   1_565 S
C84    H85     0.951   .     S
C84    C86     1.376   1_554 S
C86    C84     1.376   1_556 S
C86    C89     1.485   .     S
C86    C87     1.433   1_565 S
C87    H88     0.951   .     S
C87    C86     1.433   1_545 S
C89    H90     0.991   .     S
C89    H91     0.986   .     S
C92    O74     1.256   1_545 S
