data_GEGPEQ_FSR
_audit_creation_date              2024-06-11
_audit_creation_method            'Materials Studio'
_symmetry_space_group_name_H-M    'P1'
_symmetry_Int_Tables_number       1
_symmetry_cell_setting            triclinic
loop_
_symmetry_equiv_pos_as_xyz
  x,y,z
_cell_length_a                    7.9655
_cell_length_b                    15.6161
_cell_length_c                    9.2917
_cell_angle_alpha                 90.0000
_cell_angle_beta                  112.2010
_cell_angle_gamma                 90.0000
loop_
_atom_site_label
_atom_site_type_symbol
_atom_site_fract_x
_atom_site_fract_y
_atom_site_fract_z
_atom_site_U_iso_or_equiv
_atom_site_adp_type
_atom_site_occupancy
Eu1    Eu    0.07924   0.66596   0.03337   0.00000  Uiso   1.00
O2     O    -0.15620   0.66270   0.13640   0.00000  Uiso   1.00
O3     O    -0.06800   0.72670   0.36510   0.00000  Uiso   1.00
O4     O    -0.07700   0.57870   0.82960   0.00000  Uiso   1.00
O5     O    -0.18600   0.44670   0.80350   0.00000  Uiso   1.00
O6     O    -0.24500   0.26140   0.28830   0.00000  Uiso   1.00
O7     O    -0.31400   0.34650   0.04460   0.00000  Uiso   1.00
O8     O    -0.53700   0.24230   0.06800   0.00000  Uiso   1.00
H9     H    -0.63640   0.26400   0.04900   0.00000  Uiso   1.00
P10    P    -0.38570   0.30800   0.15600   0.00000  Uiso   1.00
C11    C    -0.13700   0.66560   0.28000   0.00000  Uiso   1.00
C12    C    -0.20000   0.59120   0.34900   0.00000  Uiso   1.00
C13    C    -0.15000   0.58770   0.50900   0.00000  Uiso   1.00
H14    H    -0.08010   0.63130   0.57170   0.00000  Uiso   1.00
C15    C    -0.20300   0.51960   0.57500   0.00000  Uiso   1.00
C16    C    -0.31300   0.45420   0.48400   0.00000  Uiso   1.00
H17    H    -0.34950   0.40870   0.52920   0.00000  Uiso   1.00
C18    C    -0.36500   0.45890   0.32200   0.00000  Uiso   1.00
C19    C    -0.30900   0.52630   0.25800   0.00000  Uiso   1.00
H20    H    -0.34400   0.52880   0.15020   0.00000  Uiso   1.00
C21    C    -0.49500   0.39080   0.22400   0.00000  Uiso   1.00
H22    H    -0.58650   0.41820   0.13530   0.00000  Uiso   1.00
H23    H    -0.55650   0.36460   0.28560   0.00000  Uiso   1.00
C24    C    -0.14800   0.51530   0.75000   0.00000  Uiso   1.00
Eu25   Eu   -0.07924   0.16596   0.46663   0.00000  Uiso   1.00
O26    O     0.15620   0.16270   0.36360   0.00000  Uiso   1.00
O27    O     0.06800   0.22670   0.13490   0.00000  Uiso   1.00
O28    O     0.07700   0.07870   0.67040   0.00000  Uiso   1.00
O29    O     0.18600   0.94670   0.69650   0.00000  Uiso   1.00
O30    O     0.24500   0.76140   0.21170   0.00000  Uiso   1.00
O31    O     0.31400   0.84650   0.45540   0.00000  Uiso   1.00
O32    O     0.53700   0.74230   0.43200   0.00000  Uiso   1.00
H33    H     0.63640   0.76400   0.45100   0.00000  Uiso   1.00
P34    P     0.38570   0.80800   0.34400   0.00000  Uiso   1.00
C35    C     0.13700   0.16560   0.22000   0.00000  Uiso   1.00
C36    C     0.20000   0.09120   0.15100   0.00000  Uiso   1.00
C37    C     0.15000   0.08770   0.99100   0.00000  Uiso   1.00
H38    H     0.08010   0.13130   0.92830   0.00000  Uiso   1.00
C39    C     0.20300   0.01960   0.92500   0.00000  Uiso   1.00
C40    C     0.31300   0.95420   0.01600   0.00000  Uiso   1.00
H41    H     0.34950   0.90870   0.97080   0.00000  Uiso   1.00
C42    C     0.36500   0.95890   0.17800   0.00000  Uiso   1.00
C43    C     0.30900   0.02630   0.24200   0.00000  Uiso   1.00
H44    H     0.34400   0.02880   0.34980   0.00000  Uiso   1.00
C45    C     0.49500   0.89080   0.27600   0.00000  Uiso   1.00
H46    H     0.58650   0.91820   0.36470   0.00000  Uiso   1.00
H47    H     0.55650   0.86460   0.21440   0.00000  Uiso   1.00
C48    C     0.14800   0.01530   0.75000   0.00000  Uiso   1.00
Eu49   Eu   -0.07924   0.33404   0.96663   0.00000  Uiso   1.00
O50    O     0.15620   0.33730   0.86360   0.00000  Uiso   1.00
O51    O     0.06800   0.27330   0.63490   0.00000  Uiso   1.00
O52    O     0.07700   0.42130   0.17040   0.00000  Uiso   1.00
O53    O     0.18600   0.55330   0.19650   0.00000  Uiso   1.00
O54    O     0.24500   0.73860   0.71170   0.00000  Uiso   1.00
O55    O     0.31400   0.65350   0.95540   0.00000  Uiso   1.00
O56    O     0.53700   0.75770   0.93200   0.00000  Uiso   1.00
H57    H     0.63640   0.73600   0.95100   0.00000  Uiso   1.00
P58    P     0.38570   0.69200   0.84400   0.00000  Uiso   1.00
C59    C     0.13700   0.33440   0.72000   0.00000  Uiso   1.00
C60    C     0.20000   0.40880   0.65100   0.00000  Uiso   1.00
C61    C     0.15000   0.41230   0.49100   0.00000  Uiso   1.00
H62    H     0.08010   0.36870   0.42830   0.00000  Uiso   1.00
C63    C     0.20300   0.48040   0.42500   0.00000  Uiso   1.00
C64    C     0.31300   0.54580   0.51600   0.00000  Uiso   1.00
H65    H     0.34950   0.59130   0.47080   0.00000  Uiso   1.00
C66    C     0.36500   0.54110   0.67800   0.00000  Uiso   1.00
C67    C     0.30900   0.47370   0.74200   0.00000  Uiso   1.00
H68    H     0.34400   0.47120   0.84980   0.00000  Uiso   1.00
C69    C     0.49500   0.60920   0.77600   0.00000  Uiso   1.00
H70    H     0.58650   0.58180   0.86470   0.00000  Uiso   1.00
H71    H     0.55650   0.63540   0.71440   0.00000  Uiso   1.00
C72    C     0.14800   0.48470   0.25000   0.00000  Uiso   1.00
Eu73   Eu    0.07924   0.83404   0.53337   0.00000  Uiso   1.00
O74    O    -0.15620   0.83730   0.63640   0.00000  Uiso   1.00
O75    O    -0.06800   0.77330   0.86510   0.00000  Uiso   1.00
O76    O    -0.07700   0.92130   0.32960   0.00000  Uiso   1.00
O77    O    -0.18600   0.05330   0.30350   0.00000  Uiso   1.00
O78    O    -0.24500   0.23860   0.78830   0.00000  Uiso   1.00
O79    O    -0.31400   0.15350   0.54460   0.00000  Uiso   1.00
O80    O    -0.53700   0.25770   0.56800   0.00000  Uiso   1.00
H81    H    -0.63640   0.23600   0.54900   0.00000  Uiso   1.00
P82    P    -0.38570   0.19200   0.65600   0.00000  Uiso   1.00
C83    C    -0.13700   0.83440   0.78000   0.00000  Uiso   1.00
C84    C    -0.20000   0.90880   0.84900   0.00000  Uiso   1.00
C85    C    -0.15000   0.91230   0.00900   0.00000  Uiso   1.00
H86    H    -0.08010   0.86870   0.07170   0.00000  Uiso   1.00
C87    C    -0.20300   0.98040   0.07500   0.00000  Uiso   1.00
C88    C    -0.31300   0.04580   0.98400   0.00000  Uiso   1.00
H89    H    -0.34950   0.09130   0.02920   0.00000  Uiso   1.00
C90    C    -0.36500   0.04110   0.82200   0.00000  Uiso   1.00
C91    C    -0.30900   0.97370   0.75800   0.00000  Uiso   1.00
H92    H    -0.34400   0.97120   0.65020   0.00000  Uiso   1.00
C93    C    -0.49500   0.10920   0.72400   0.00000  Uiso   1.00
H94    H    -0.58650   0.08180   0.63530   0.00000  Uiso   1.00
H95    H    -0.55650   0.13540   0.78560   0.00000  Uiso   1.00
C96    C    -0.14800   0.98470   0.25000   0.00000  Uiso   1.00
loop_
_geom_bond_atom_site_label_1
_geom_bond_atom_site_label_2
_geom_bond_distance
_geom_bond_site_symmetry_2
_ccdc_geom_bond_type
Eu1    O2      2.407   .     S
Eu1    O75     2.290   1_554 S
Eu1    O4      2.283   1_554 S
Eu1    O53     2.268   .     S
Eu1    O30     2.249   .     S
Eu1    O55     2.255   1_554 S
O2     C11     1.285   .     S
O3     C11     1.229   .     S
O3     Eu73    2.290   .     S
O4     C24     1.237   .     S
O4     Eu1     2.283   1_556 S
O5     C24     1.265   .     S
O5     Eu49    2.268   .     S
O6     P10     1.502   .     S
O6     Eu25    2.249   .     S
O7     P10     1.485   .     S
O7     Eu49    2.255   1_554 S
O8     H9      0.817   .     S
O8     P10     1.559   .     S
P10    C21     1.801   .     S
C11    C12     1.502   .     S
C12    C13     1.387   .     S
C12    C19     1.393   .     S
C13    H14     0.932   .     S
C13    C15     1.371   .     S
C15    C16     1.402   .     S
C15    C24     1.517   .     S
C16    H17     0.926   .     S
C16    C18     1.404   .     S
C18    C19     1.364   .     S
C18    C21     1.523   .     S
C19    H20     0.934   .     S
C21    H22     0.969   .     S
C21    H23     0.973   .     S
Eu25   O26     2.407   .     S
Eu25   O51     2.290   .     S
Eu25   O28     2.283   .     S
Eu25   O77     2.268   .     S
Eu25   O79     2.255   .     S
O26    C35     1.285   .     S
O27    C35     1.229   .     S
O27    Eu49    2.290   1_554 S
O28    C48     1.237   .     S
O29    C48     1.265   1_565 S
O29    Eu73    2.268   .     S
O30    P34     1.502   .     S
O31    P34     1.485   .     S
O31    Eu73    2.255   .     S
O32    H33     0.817   .     S
O32    P34     1.559   .     S
P34    C45     1.801   .     S
C35    C36     1.502   .     S
C36    C37     1.387   1_554 S
C36    C43     1.393   .     S
C37    C36     1.387   1_556 S
C37    H38     0.932   .     S
C37    C39     1.371   .     S
C39    C40     1.402   1_546 S
C39    C48     1.517   .     S
C40    C39     1.402   1_564 S
C40    H41     0.926   1_554 S
C40    C42     1.404   .     S
H41    C40     0.926   1_556 S
C42    C43     1.364   1_565 S
C42    C45     1.523   .     S
C43    H44     0.934   .     S
C43    C42     1.364   1_545 S
C45    H46     0.969   .     S
C45    H47     0.973   .     S
C48    O29     1.265   1_545 S
Eu49   O50     2.407   .     S
Eu49   O27     2.290   1_556 S
Eu49   O52     2.283   1_556 S
Eu49   O78     2.249   .     S
Eu49   O7      2.255   1_556 S
O50    C59     1.285   .     S
O51    C59     1.229   .     S
O52    C72     1.237   .     S
O52    Eu49    2.283   1_554 S
O53    C72     1.265   .     S
O54    P58     1.502   .     S
O54    Eu73    2.249   .     S
O55    P58     1.485   .     S
O55    Eu1     2.255   1_556 S
O56    H57     0.817   .     S
O56    P58     1.559   .     S
P58    C69     1.801   .     S
C59    C60     1.502   .     S
C60    C61     1.387   .     S
C60    C67     1.393   .     S
C61    H62     0.932   .     S
C61    C63     1.371   .     S
C63    C64     1.402   .     S
C63    C72     1.517   .     S
C64    H65     0.926   .     S
C64    C66     1.404   .     S
C66    C67     1.364   .     S
C66    C69     1.523   .     S
C67    H68     0.934   .     S
C69    H70     0.969   .     S
C69    H71     0.973   .     S
Eu73   O74     2.407   .     S
Eu73   O76     2.283   .     S
O74    C83     1.285   .     S
O75    C83     1.229   .     S
O75    Eu1     2.290   1_556 S
O76    C96     1.237   .     S
O77    C96     1.265   1_545 S
O78    P82     1.502   .     S
O79    P82     1.485   .     S
O80    H81     0.817   .     S
O80    P82     1.559   .     S
P82    C93     1.801   .     S
C83    C84     1.502   .     S
C84    C85     1.387   1_556 S
C84    C91     1.393   .     S
C85    C84     1.387   1_554 S
C85    H86     0.932   .     S
C85    C87     1.371   .     S
C87    C88     1.402   1_564 S
C87    C96     1.517   .     S
C88    C87     1.402   1_546 S
C88    H89     0.926   1_556 S
C88    C90     1.404   .     S
H89    C88     0.926   1_554 S
C90    C91     1.364   1_545 S
C90    C93     1.523   .     S
C91    H92     0.934   .     S
C91    C90     1.364   1_565 S
C93    H94     0.969   .     S
C93    H95     0.973   .     S
C96    O77     1.265   1_565 S
