data_GENMOE_FSR
_audit_creation_date              2024-06-11
_audit_creation_method            'Materials Studio'
_symmetry_space_group_name_H-M    'P1'
_symmetry_Int_Tables_number       1
_symmetry_cell_setting            triclinic
loop_
_symmetry_equiv_pos_as_xyz
  x,y,z
_cell_length_a                    10.7984
_cell_length_b                    12.0726
_cell_length_c                    14.4123
_cell_angle_alpha                 93.4510
_cell_angle_beta                  102.5870
_cell_angle_gamma                 112.7150
loop_
_atom_site_label
_atom_site_type_symbol
_atom_site_fract_x
_atom_site_fract_y
_atom_site_fract_z
_atom_site_U_iso_or_equiv
_atom_site_adp_type
_atom_site_occupancy
C1     C     0.36710   0.39450   0.71530   0.00000  Uiso   1.00
C2     C     0.22860   0.40580   0.69900   0.00000  Uiso   1.00
C3     C     0.94250   0.22850   0.89800   0.00000  Uiso   1.00
C4     C     0.91860   0.12300   0.83140   0.00000  Uiso   1.00
C5     C     0.46900   0.86370   0.67310   0.00000  Uiso   1.00
C6     C     0.49140   0.79070   0.75310   0.00000  Uiso   1.00
C7     C     0.88440   0.11230   0.16230   0.00000  Uiso   1.00
H8     H     0.94310   0.11250   0.12000   0.00000  Uiso   1.00
H9     H     0.87910   0.19080   0.16670   0.00000  Uiso   1.00
C10    C     0.87020   0.10170   0.33280   0.00000  Uiso   1.00
H11    H     0.77680   0.03830   0.30940   0.00000  Uiso   1.00
H12    H     0.86370   0.17970   0.33700   0.00000  Uiso   1.00
C13    C     0.93740   0.08480   0.43150   0.00000  Uiso   1.00
H14    H     0.88230   0.08680   0.47600   0.00000  Uiso   1.00
H15    H     0.94490   0.00720   0.42800   0.00000  Uiso   1.00
C16    C     0.07760   0.18630   0.46420   0.00000  Uiso   1.00
H17    H     0.12340   0.17660   0.52700   0.00000  Uiso   1.00
H18    H     0.06650   0.26200   0.47190   0.00000  Uiso   1.00
C19    C     0.17160   0.19670   0.39810   0.00000  Uiso   1.00
H20    H     0.19580   0.12650   0.39450   0.00000  Uiso   1.00
C21    C     0.09630   0.21090   0.29600   0.00000  Uiso   1.00
H22    H     0.08120   0.28500   0.29950   0.00000  Uiso   1.00
H23    H     0.15140   0.21330   0.25060   0.00000  Uiso   1.00
C24    C     0.30540   0.32020   0.42590   0.00000  Uiso   1.00
Er25   Er    0.24524   0.28074   0.88284   0.00000  Uiso   1.00
Er26   Er    0.62046   0.05705   0.86781   0.00000  Uiso   1.00
Er27   Er    0.36459   0.59278   0.56691   0.00000  Uiso   1.00
N28    N     0.95420   0.09630   0.26470   0.00000  Uiso   1.00
O29    O     0.38920   0.33010   0.77460   0.00000  Uiso   1.00
O30    O     0.43500   0.45650   0.65700   0.00000  Uiso   1.00
O31    O     0.16650   0.45940   0.63710   0.00000  Uiso   1.00
O32    O     0.15460   0.35150   0.74890   0.00000  Uiso   1.00
O33    O     0.06160   0.31280   0.92650   0.00000  Uiso   1.00
O34    O     0.02120   0.11720   0.81010   0.00000  Uiso   1.00
O35    O     0.79470   0.04200   0.80260   0.00000  Uiso   1.00
O36    O     0.83470   0.22790   0.92600   0.00000  Uiso   1.00
O37    O     0.51270   0.97730   0.69560   0.00000  Uiso   1.00
O38    O     0.55850   0.84870   0.83290   0.00000  Uiso   1.00
O39    O     0.43450   0.67670   0.72900   0.00000  Uiso   1.00
O40    O     0.39700   0.80320   0.59120   0.00000  Uiso   1.00
O41    O     0.70680   0.99630   0.00180   0.00000  Uiso   1.00
O42    O     0.60870   0.03140   0.13920   0.00000  Uiso   1.00
O43    O     0.70870   0.88340   0.14520   0.00000  Uiso   1.00
O44    O     0.40220   0.30880   0.40480   0.00000  Uiso   1.00
O45    O     0.30760   0.41720   0.46240   0.00000  Uiso   1.00
O46    O     0.29630   0.48840   0.93920   0.00000  Uiso   1.00
H47    H     0.22450   0.46950   0.97250   0.00000  Uiso   1.00
H48    H     0.26630   0.52440   0.88590   0.00000  Uiso   1.00
O49    O     0.48190   0.35170   0.97900   0.00000  Uiso   1.00
H50    H     0.48500   0.30460   0.03010   0.00000  Uiso   1.00
H51    H     0.51610   0.32410   0.93030   0.00000  Uiso   1.00
O52    O     0.22140   0.20310   0.03070   0.00000  Uiso   1.00
H53    H     0.13830   0.18300   0.03460   0.00000  Uiso   1.00
H54    H     0.24110   0.14140   0.03150   0.00000  Uiso   1.00
O55    O     0.57870   0.21130   0.79590   0.00000  Uiso   1.00
H56    H     0.57790   0.20230   0.73680   0.00000  Uiso   1.00
H57    H     0.50050   0.20830   0.80090   0.00000  Uiso   1.00
O58    O     0.59870   0.18350   0.99290   0.00000  Uiso   1.00
H59    H     0.67900   0.22930   0.02850   0.00000  Uiso   1.00
H60    H     0.55230   0.13910   0.02760   0.00000  Uiso   1.00
O61    O     0.40620   0.66700   0.41960   0.00000  Uiso   1.00
H62    H     0.42320   0.61700   0.38580   0.00000  Uiso   1.00
H63    H     0.32240   0.65320   0.39200   0.00000  Uiso   1.00
O64    O     0.15120   0.61300   0.50230   0.00000  Uiso   1.00
H65    H     0.12300   0.62410   0.44540   0.00000  Uiso   1.00
H66    H     0.10330   0.60780   0.55180   0.00000  Uiso   1.00
P67    P     0.71370   0.99650   0.10997   0.00000  Uiso   1.00
C68    C     0.63290   0.60550   0.28470   0.00000  Uiso   1.00
C69    C     0.77140   0.59420   0.30100   0.00000  Uiso   1.00
C70    C     0.05750   0.77150   0.10200   0.00000  Uiso   1.00
C71    C     0.08140   0.87700   0.16860   0.00000  Uiso   1.00
C72    C     0.53100   0.13630   0.32690   0.00000  Uiso   1.00
C73    C     0.50860   0.20930   0.24690   0.00000  Uiso   1.00
C74    C     0.11560   0.88770   0.83770   0.00000  Uiso   1.00
H75    H     0.05690   0.88750   0.88000   0.00000  Uiso   1.00
H76    H     0.12090   0.80920   0.83330   0.00000  Uiso   1.00
C77    C     0.12980   0.89830   0.66720   0.00000  Uiso   1.00
H78    H     0.22320   0.96170   0.69060   0.00000  Uiso   1.00
H79    H     0.13630   0.82030   0.66300   0.00000  Uiso   1.00
C80    C     0.06260   0.91520   0.56850   0.00000  Uiso   1.00
H81    H     0.11770   0.91320   0.52400   0.00000  Uiso   1.00
H82    H     0.05510   0.99280   0.57200   0.00000  Uiso   1.00
C83    C     0.92240   0.81370   0.53580   0.00000  Uiso   1.00
H84    H     0.87660   0.82340   0.47300   0.00000  Uiso   1.00
H85    H     0.93350   0.73800   0.52810   0.00000  Uiso   1.00
C86    C     0.82840   0.80330   0.60190   0.00000  Uiso   1.00
H87    H     0.80420   0.87350   0.60550   0.00000  Uiso   1.00
C88    C     0.90370   0.78910   0.70400   0.00000  Uiso   1.00
H89    H     0.91880   0.71500   0.70050   0.00000  Uiso   1.00
H90    H     0.84860   0.78670   0.74940   0.00000  Uiso   1.00
C91    C     0.69460   0.67980   0.57410   0.00000  Uiso   1.00
Er92   Er    0.75476   0.71926   0.11716   0.00000  Uiso   1.00
Er93   Er    0.37954   0.94295   0.13219   0.00000  Uiso   1.00
Er94   Er    0.63541   0.40722   0.43309   0.00000  Uiso   1.00
N95    N     0.04580   0.90370   0.73530   0.00000  Uiso   1.00
O96    O     0.61080   0.66990   0.22540   0.00000  Uiso   1.00
O97    O     0.56500   0.54350   0.34300   0.00000  Uiso   1.00
O98    O     0.83350   0.54060   0.36290   0.00000  Uiso   1.00
O99    O     0.84540   0.64850   0.25110   0.00000  Uiso   1.00
O100   O     0.93840   0.68720   0.07350   0.00000  Uiso   1.00
O101   O     0.97880   0.88280   0.18990   0.00000  Uiso   1.00
O102   O     0.20530   0.95800   0.19740   0.00000  Uiso   1.00
O103   O     0.16530   0.77210   0.07400   0.00000  Uiso   1.00
O104   O     0.48730   0.02270   0.30440   0.00000  Uiso   1.00
O105   O     0.44150   0.15130   0.16710   0.00000  Uiso   1.00
O106   O     0.56550   0.32330   0.27100   0.00000  Uiso   1.00
O107   O     0.60300   0.19680   0.40880   0.00000  Uiso   1.00
O108   O     0.29320   0.00370   0.99820   0.00000  Uiso   1.00
O109   O     0.39130   0.96860   0.86080   0.00000  Uiso   1.00
O110   O     0.29130   0.11660   0.85480   0.00000  Uiso   1.00
O111   O     0.59780   0.69120   0.59520   0.00000  Uiso   1.00
O112   O     0.69240   0.58280   0.53760   0.00000  Uiso   1.00
O113   O     0.70370   0.51160   0.06080   0.00000  Uiso   1.00
H114   H     0.77550   0.53050   0.02750   0.00000  Uiso   1.00
H115   H     0.73370   0.47560   0.11410   0.00000  Uiso   1.00
O116   O     0.51810   0.64830   0.02100   0.00000  Uiso   1.00
H117   H     0.51500   0.69540   0.96990   0.00000  Uiso   1.00
H118   H     0.48390   0.67590   0.06970   0.00000  Uiso   1.00
O119   O     0.77860   0.79690   0.96930   0.00000  Uiso   1.00
H120   H     0.86170   0.81700   0.96540   0.00000  Uiso   1.00
H121   H     0.75890   0.85860   0.96850   0.00000  Uiso   1.00
O122   O     0.42130   0.78870   0.20410   0.00000  Uiso   1.00
H123   H     0.42210   0.79770   0.26320   0.00000  Uiso   1.00
H124   H     0.49950   0.79170   0.19910   0.00000  Uiso   1.00
O125   O     0.40130   0.81650   0.00710   0.00000  Uiso   1.00
H126   H     0.32100   0.77070   0.97150   0.00000  Uiso   1.00
H127   H     0.44770   0.86090   0.97240   0.00000  Uiso   1.00
O128   O     0.59380   0.33300   0.58040   0.00000  Uiso   1.00
H129   H     0.57680   0.38300   0.61420   0.00000  Uiso   1.00
H130   H     0.67760   0.34680   0.60800   0.00000  Uiso   1.00
O131   O     0.84880   0.38700   0.49770   0.00000  Uiso   1.00
H132   H     0.87700   0.37590   0.55460   0.00000  Uiso   1.00
H133   H     0.89670   0.39220   0.44820   0.00000  Uiso   1.00
P134   P     0.28630   0.00350   0.89003   0.00000  Uiso   1.00
loop_
_geom_bond_atom_site_label_1
_geom_bond_atom_site_label_2
_geom_bond_distance
_geom_bond_site_symmetry_2
_ccdc_geom_bond_type
C1     C2      1.523   .     S
C1     O29     1.235   .     S
C1     O30     1.313   .     S
C2     O31     1.345   .     S
C2     O32     1.220   .     S
C3     C4      1.450   .     S
C3     O33     1.252   1_655 S
C3     O36     1.310   .     S
C4     O34     1.238   1_655 S
C4     O35     1.272   .     S
C5     C6      1.526   .     S
C5     O37     1.260   .     S
C5     O40     1.261   .     S
C6     O38     1.219   .     S
C6     O39     1.260   .     S
C7     H8      0.970   .     S
C7     H9      0.970   .     S
C7     N28     1.564   .     S
C7     P67     1.788   1_545 S
C10    H11     0.970   .     S
C10    H12     0.970   .     S
C10    C13     1.514   .     S
C10    N28     1.489   .     S
C13    H14     0.970   .     S
C13    H15     0.970   .     S
C13    C16     1.484   1_655 S
C16    C13     1.484   1_455 S
C16    H17     0.969   .     S
C16    H18     0.970   .     S
C16    C19     1.514   .     S
C19    H20     0.980   .     S
C19    C21     1.572   .     S
C19    C24     1.576   .     S
C21    H22     0.970   .     S
C21    H23     0.970   .     S
C21    N28     1.567   1_455 S
C24    O44     1.204   .     S
C24    O45     1.244   .     S
Er25   O33     2.363   .     S
Er25   O34     2.410   .     S
Er25   O46     2.396   .     S
Er25   O49     2.410   .     S
Er25   O52     2.404   1_556 S
Er25   O29     2.379   .     S
Er25   O32     2.331   .     S
Er25   O110    2.256   .     S
Er26   O35     2.339   .     S
Er26   O38     2.330   1_545 S
Er26   O41     2.247   1_546 S
Er26   O55     2.329   .     S
Er26   O58     2.401   .     S
Er26   O109    2.261   1_545 S
Er26   O36     2.360   .     S
Er26   O37     2.455   1_545 S
Er27   O30     2.401   .     S
Er27   O31     2.583   .     S
Er27   O61     2.418   .     S
Er27   O64     2.401   .     S
Er27   O111    2.259   .     S
Er27   O45     2.312   .     S
Er27   O39     2.326   .     S
Er27   O40     2.419   .     S
N28    C21     1.567   1_655 S
O33    C3      1.252   1_455 S
O34    C4      1.238   1_455 S
O37    Er26    2.455   1_565 S
O38    Er26    2.330   1_565 S
O41    Er26    2.247   1_564 S
O41    P67     1.544   .     S
O42    P67     1.482   1_545 S
O42    Er93    2.261   1_545 S
O43    P67     1.471   .     S
O43    Er92    2.256   .     S
O44    Er94    2.259   .     S
O46    H47     0.960   .     S
O46    H48     0.961   .     S
O49    H50     0.960   1_556 S
O49    H51     0.959   .     S
H50    O49     0.960   1_554 S
O52    Er25    2.404   1_554 S
O52    H53     0.850   .     S
O52    H54     0.850   .     S
O55    H56     0.850   .     S
O55    H57     0.850   .     S
O58    H59     0.850   1_556 S
O58    H60     0.850   1_556 S
H59    O58     0.850   1_554 S
H60    O58     0.850   1_554 S
O61    H62     0.851   .     S
O61    H63     0.851   .     S
O64    H65     0.848   .     S
O64    H66     0.960   .     S
P67    O42     1.482   1_565 S
P67    C7      1.788   1_565 S
C68    C69     1.523   .     S
C68    O96     1.235   .     S
C68    O97     1.313   .     S
C69    O98     1.345   .     S
C69    O99     1.220   .     S
C70    C71     1.450   .     S
C70    O100    1.252   1_455 S
C70    O103    1.310   .     S
C71    O101    1.238   1_455 S
C71    O102    1.272   .     S
C72    C73     1.526   .     S
C72    O104    1.260   .     S
C72    O107    1.261   .     S
C73    O105    1.219   .     S
C73    O106    1.260   .     S
C74    H75     0.970   .     S
C74    H76     0.970   .     S
C74    N95     1.564   .     S
C74    P134    1.788   1_565 S
C77    H78     0.970   .     S
C77    H79     0.970   .     S
C77    C80     1.514   .     S
C77    N95     1.489   .     S
C80    H81     0.970   .     S
C80    H82     0.970   .     S
C80    C83     1.484   1_455 S
C83    C80     1.484   1_655 S
C83    H84     0.969   .     S
C83    H85     0.970   .     S
C83    C86     1.514   .     S
C86    H87     0.980   .     S
C86    C88     1.572   .     S
C86    C91     1.576   .     S
C88    H89     0.970   .     S
C88    H90     0.970   .     S
C88    N95     1.567   1_655 S
C91    O111    1.204   .     S
C91    O112    1.244   .     S
Er92   O100    2.363   .     S
Er92   O101    2.410   .     S
Er92   O113    2.396   .     S
Er92   O116    2.410   .     S
Er92   O119    2.404   1_554 S
Er92   O96     2.379   .     S
Er92   O99     2.331   .     S
Er93   O102    2.339   .     S
Er93   O105    2.330   1_565 S
Er93   O108    2.247   1_564 S
Er93   O122    2.329   .     S
Er93   O125    2.401   .     S
Er93   O42     2.261   1_565 S
Er93   O103    2.360   .     S
Er93   O104    2.455   1_565 S
Er94   O97     2.401   .     S
Er94   O98     2.583   .     S
Er94   O128    2.418   .     S
Er94   O131    2.401   .     S
Er94   O112    2.312   .     S
Er94   O106    2.326   .     S
Er94   O107    2.419   .     S
N95    C88     1.567   1_455 S
O100   C70     1.252   1_655 S
O101   C71     1.238   1_655 S
O104   Er93    2.455   1_545 S
O105   Er93    2.330   1_545 S
O108   Er93    2.247   1_546 S
O108   P134    1.544   .     S
O109   P134    1.482   1_565 S
O109   Er26    2.261   1_565 S
O110   P134    1.471   .     S
O113   H114    0.960   .     S
O113   H115    0.961   .     S
O116   H117    0.960   1_554 S
O116   H118    0.959   .     S
H117   O116    0.960   1_556 S
O119   Er92    2.404   1_556 S
O119   H120    0.850   .     S
O119   H121    0.850   .     S
O122   H123    0.850   .     S
O122   H124    0.850   .     S
O125   H126    0.850   1_554 S
O125   H127    0.850   1_554 S
H126   O125    0.850   1_556 S
H127   O125    0.850   1_556 S
O128   H129    0.851   .     S
O128   H130    0.851   .     S
O131   H132    0.848   .     S
O131   H133    0.960   .     S
P134   O109    1.482   1_545 S
P134   C74     1.788   1_545 S
