data_GEWTIP_FSR
_audit_creation_date              2024-06-11
_audit_creation_method            'Materials Studio'
_symmetry_space_group_name_H-M    'P1'
_symmetry_Int_Tables_number       1
_symmetry_cell_setting            triclinic
loop_
_symmetry_equiv_pos_as_xyz
  x,y,z
_cell_length_a                    14.1050
_cell_length_b                    14.4360
_cell_length_c                    16.9640
_cell_angle_alpha                 72.7000
_cell_angle_beta                  75.1300
_cell_angle_gamma                 79.0300
loop_
_atom_site_label
_atom_site_type_symbol
_atom_site_fract_x
_atom_site_fract_y
_atom_site_fract_z
_atom_site_U_iso_or_equiv
_atom_site_adp_type
_atom_site_occupancy
Ni1    Ni    0.97973   0.18390   0.26699   0.00000  Uiso   1.00
Ni2    Ni    0.51365   0.67717   0.21142   0.00000  Uiso   1.00
S3     S     0.21190   0.56270   0.28851   0.00000  Uiso   1.00
S4     S     0.65370   0.97760   0.13010   0.00000  Uiso   1.00
O5     O     0.87630   0.09610   0.27780   0.00000  Uiso   1.00
O6     O     0.09490   0.26050   0.25090   0.00000  Uiso   1.00
O7     O     0.58330   0.77590   0.23520   0.00000  Uiso   1.00
O8     O     0.37930   0.72280   0.28950   0.00000  Uiso   1.00
H9     H     0.34284   0.67134   0.32317   0.00000  Uiso   1.00
H10    H     0.33370   0.76069   0.25756   0.00000  Uiso   1.00
O11    O     0.43170   0.58800   0.19440   0.00000  Uiso   1.00
O12    O     0.03330   0.08580   0.36830   0.00000  Uiso   1.00
H13    H     0.98450   0.07210   0.41257   0.00000  Uiso   1.00
H14    H     0.07189   0.11386   0.38528   0.00000  Uiso   1.00
N15    N     0.64360   0.63810   0.13340   0.00000  Uiso   1.00
N16    N     0.92870   0.28030   0.16690   0.00000  Uiso   1.00
N17    N     0.89460   0.24610   0.11640   0.00000  Uiso   1.00
H18    H     0.89320   0.18335   0.12356   0.00000  Uiso   1.00
N19    N     0.93840   0.31170   0.38390   0.00000  Uiso   1.00
H20    H     0.00270   0.30552   0.37938   0.00000  Uiso   1.00
N21    N     0.48550   0.50460   0.35700   0.00000  Uiso   1.00
H22    H     0.42661   0.50803   0.34696   0.00000  Uiso   1.00
O23    O     0.47920   0.81270   0.34560   0.00000  Uiso   1.00
O24    O     0.06740   0.09660   0.19110   0.00000  Uiso   1.00
H25    H     0.12979   0.09681   0.18933   0.00000  Uiso   1.00
H26    H     0.06107   0.12312   0.13888   0.00000  Uiso   1.00
N27    N     0.89480   0.26560   0.34590   0.00000  Uiso   1.00
N28    N     0.55010   0.56870   0.31190   0.00000  Uiso   1.00
O29    O     0.27920   0.54500   0.34570   0.00000  Uiso   1.00
O30    O     0.21850   0.18840   0.16830   0.00000  Uiso   1.00
N31    N     0.70930   0.70250   0.09910   0.00000  Uiso   1.00
H32    H     0.69890   0.76179   0.10624   0.00000  Uiso   1.00
O33    O     0.11380   0.53610   0.33320   0.00000  Uiso   1.00
O34    O     0.87920   0.99330   0.39840   0.00000  Uiso   1.00
C35    C     0.62990   0.53780   0.34590   0.00000  Uiso   1.00
C36    C     0.87380   0.36740   0.42880   0.00000  Uiso   1.00
O37    O     0.42100   0.62730   0.05960   0.00000  Uiso   1.00
C38    C     0.61510   0.45360   0.41420   0.00000  Uiso   1.00
C39    C     0.87580   0.40320   0.06690   0.00000  Uiso   1.00
O40    O     0.20790   0.66300   0.23400   0.00000  Uiso   1.00
C41    C     0.91400   0.37840   0.13730   0.00000  Uiso   1.00
C42    C     0.55890   0.81740   0.29300   0.00000  Uiso   1.00
C43    C     0.78110   0.35450   0.42590   0.00000  Uiso   1.00
C44    C     0.68640   0.56080   0.10720   0.00000  Uiso   1.00
C45    C     0.79600   0.29320   0.37230   0.00000  Uiso   1.00
C46    C     0.79210   0.66730   0.05280   0.00000  Uiso   1.00
C47    C     0.51940   0.43710   0.41690   0.00000  Uiso   1.00
C48    C     0.77940   0.57370   0.05840   0.00000  Uiso   1.00
C49    C     0.71950   0.58810   0.31780   0.00000  Uiso   1.00
H50    H     0.72755   0.62185   0.25758   0.00000  Uiso   1.00
H51    H     0.77743   0.53992   0.32700   0.00000  Uiso   1.00
H52    H     0.71282   0.63575   0.35029   0.00000  Uiso   1.00
C53    C     0.94380   0.44260   0.17790   0.00000  Uiso   1.00
H54    H     0.89383   0.44827   0.22898   0.00000  Uiso   1.00
H55    H     0.94962   0.50755   0.13855   0.00000  Uiso   1.00
H56    H     0.00765   0.41458   0.19317   0.00000  Uiso   1.00
C57    C     0.77680   0.96980   0.31990   0.00000  Uiso   1.00
C58    C     0.86220   0.31630   0.05300   0.00000  Uiso   1.00
C59    C     0.23650   0.34200   0.18480   0.00000  Uiso   1.00
C60    C     0.63310   0.87290   0.29920   0.00000  Uiso   1.00
C61    C     0.20610   0.40850   0.23390   0.00000  Uiso   1.00
H62    H     0.14865   0.40032   0.27792   0.00000  Uiso   1.00
C63    C     0.85160   0.02440   0.33230   0.00000  Uiso   1.00
C64    C     0.63730   0.46680   0.13500   0.00000  Uiso   1.00
H65    H     0.67863   0.41328   0.16624   0.00000  Uiso   1.00
H66    H     0.62996   0.45027   0.08507   0.00000  Uiso   1.00
H67    H     0.57211   0.47674   0.17148   0.00000  Uiso   1.00
C68    C     0.34110   0.49870   0.15410   0.00000  Uiso   1.00
C69    C     0.46310   0.35800   0.47410   0.00000  Uiso   1.00
H70    H     0.39300   0.37586   0.47222   0.00000  Uiso   1.00
H71    H     0.47106   0.34788   0.53193   0.00000  Uiso   1.00
H72    H     0.48788   0.29759   0.45631   0.00000  Uiso   1.00
C73    C     0.25700   0.48540   0.22030   0.00000  Uiso   1.00
C74    C     0.36760   0.43390   0.10250   0.00000  Uiso   1.00
H75    H     0.42170   0.44368   0.05538   0.00000  Uiso   1.00
C76    C     0.40070   0.58190   0.13300   0.00000  Uiso   1.00
C77    C     0.71640   0.91860   0.38860   0.00000  Uiso   1.00
H78    H     0.72284   0.91413   0.44402   0.00000  Uiso   1.00
C79    C     0.31610   0.35740   0.11960   0.00000  Uiso   1.00
H80    H     0.33634   0.31313   0.08495   0.00000  Uiso   1.00
C81    C     0.72300   0.25730   0.34550   0.00000  Uiso   1.00
H82    H     0.75621   0.22514   0.30053   0.00000  Uiso   1.00
H83    H     0.67544   0.31224   0.32422   0.00000  Uiso   1.00
H84    H     0.68808   0.21028   0.39361   0.00000  Uiso   1.00
C85    C     0.85130   0.50650   0.01180   0.00000  Uiso   1.00
H86    H     0.91348   0.53630  -0.01418   0.00000  Uiso   1.00
H87    H     0.82365   0.50124  -0.03449   0.00000  Uiso   1.00
C88    C     0.68610   0.39650   0.46930   0.00000  Uiso   1.00
H89    H     0.69954   0.44004   0.49948   0.00000  Uiso   1.00
H90    H     0.65322   0.34261   0.51244   0.00000  Uiso   1.00
C91    C     0.18090   0.25630   0.20400   0.00000  Uiso   1.00
C92    C     0.87500   0.72690   0.00850   0.00000  Uiso   1.00
H93    H     0.84885   0.79629  -0.00574   0.00000  Uiso   1.00
H94    H     0.90934   0.70771  -0.04335   0.00000  Uiso   1.00
H95    H     0.92150   0.71575   0.04554   0.00000  Uiso   1.00
C96    C     0.64510   0.87270   0.37630   0.00000  Uiso   1.00
H97    H     0.60197   0.83900   0.42491   0.00000  Uiso   1.00
O98    O     0.46710   0.79190   0.11290   0.00000  Uiso   1.00
H99    H     0.46511   0.78908   0.06283   0.00000  Uiso   1.00
H100   H     0.43969   0.85075   0.11509   0.00000  Uiso   1.00
C101   C     0.82010   0.29460  -0.01110   0.00000  Uiso   1.00
H102   H     0.80133   0.22819   0.01000   0.00000  Uiso   1.00
H103   H     0.86974   0.29973  -0.06404   0.00000  Uiso   1.00
H104   H     0.76161   0.34157  -0.02120   0.00000  Uiso   1.00
C105   C     0.90770   0.42730   0.47230   0.00000  Uiso   1.00
H106   H     0.90482   0.39166   0.53168   0.00000  Uiso   1.00
H107   H     0.86458   0.48956   0.46901   0.00000  Uiso   1.00
H108   H     0.97578   0.43985   0.44466   0.00000  Uiso   1.00
O109   O     0.71490   0.90390   0.07930   0.00000  Uiso   1.00
O110   O     0.68370   0.07630   0.08730   0.00000  Uiso   1.00
O111   O     0.53540   0.97830   0.13650   0.00000  Uiso   1.00
C112   C     0.76070   0.97800   0.24500   0.00000  Uiso   1.00
H113   H     0.79779   0.01863   0.19656   0.00000  Uiso   1.00
C114   C     0.68860   0.92700   0.23460   0.00000  Uiso   1.00
Ni115  Ni    0.02027   0.81610   0.73301   0.00000  Uiso   1.00
Ni116  Ni    0.48635   0.32283   0.78858   0.00000  Uiso   1.00
S117   S     0.78810   0.43730   0.71149   0.00000  Uiso   1.00
S118   S     0.34630   0.02240   0.86990   0.00000  Uiso   1.00
O119   O     0.12370   0.90390   0.72220   0.00000  Uiso   1.00
O120   O     0.90510   0.73950   0.74910   0.00000  Uiso   1.00
O121   O     0.41670   0.22410   0.76480   0.00000  Uiso   1.00
O122   O     0.62070   0.27720   0.71050   0.00000  Uiso   1.00
H123   H     0.65716   0.32866   0.67683   0.00000  Uiso   1.00
H124   H     0.66630   0.23931   0.74244   0.00000  Uiso   1.00
O125   O     0.56830   0.41200   0.80560   0.00000  Uiso   1.00
O126   O     0.96670   0.91420   0.63170   0.00000  Uiso   1.00
H127   H     0.01551   0.92790   0.58743   0.00000  Uiso   1.00
H128   H     0.92811   0.88614   0.61472   0.00000  Uiso   1.00
N129   N     0.35640   0.36190   0.86660   0.00000  Uiso   1.00
N130   N     0.07130   0.71970   0.83310   0.00000  Uiso   1.00
N131   N     0.10540   0.75390   0.88360   0.00000  Uiso   1.00
H132   H     0.10680   0.81665   0.87644   0.00000  Uiso   1.00
N133   N     0.06160   0.68830   0.61610   0.00000  Uiso   1.00
H134   H     0.99730   0.69448   0.62062   0.00000  Uiso   1.00
N135   N     0.51450   0.49540   0.64300   0.00000  Uiso   1.00
H136   H     0.57339   0.49197   0.65304   0.00000  Uiso   1.00
O137   O     0.52080   0.18730   0.65440   0.00000  Uiso   1.00
O138   O     0.93260   0.90340   0.80890   0.00000  Uiso   1.00
H139   H     0.87021   0.90319   0.81067   0.00000  Uiso   1.00
H140   H     0.93893   0.87688   0.86112   0.00000  Uiso   1.00
N141   N     0.10520   0.73440   0.65410   0.00000  Uiso   1.00
N142   N     0.44990   0.43130   0.68810   0.00000  Uiso   1.00
O143   O     0.72080   0.45500   0.65430   0.00000  Uiso   1.00
O144   O     0.78150   0.81160   0.83170   0.00000  Uiso   1.00
N145   N     0.29070   0.29750   0.90090   0.00000  Uiso   1.00
H146   H     0.30110   0.23821   0.89376   0.00000  Uiso   1.00
O147   O     0.88620   0.46390   0.66680   0.00000  Uiso   1.00
O148   O     0.12080   0.00670   0.60160   0.00000  Uiso   1.00
C149   C     0.37010   0.46220   0.65410   0.00000  Uiso   1.00
C150   C     0.12620   0.63260   0.57120   0.00000  Uiso   1.00
O151   O     0.57900   0.37270   0.94040   0.00000  Uiso   1.00
C152   C     0.38490   0.54640   0.58580   0.00000  Uiso   1.00
C153   C     0.12420   0.59680   0.93310   0.00000  Uiso   1.00
O154   O     0.79210   0.33700   0.76600   0.00000  Uiso   1.00
C155   C     0.08600   0.62160   0.86270   0.00000  Uiso   1.00
C156   C     0.44110   0.18260   0.70700   0.00000  Uiso   1.00
C157   C     0.21890   0.64550   0.57410   0.00000  Uiso   1.00
C158   C     0.31360   0.43920   0.89280   0.00000  Uiso   1.00
C159   C     0.20400   0.70680   0.62770   0.00000  Uiso   1.00
C160   C     0.20790   0.33270   0.94720   0.00000  Uiso   1.00
C161   C     0.48060   0.56290   0.58310   0.00000  Uiso   1.00
C162   C     0.22060   0.42630   0.94160   0.00000  Uiso   1.00
C163   C     0.28050   0.41190   0.68220   0.00000  Uiso   1.00
H164   H     0.27245   0.37815   0.74242   0.00000  Uiso   1.00
H165   H     0.22257   0.46008   0.67300   0.00000  Uiso   1.00
H166   H     0.28719   0.36425   0.64971   0.00000  Uiso   1.00
C167   C     0.05620   0.55740   0.82210   0.00000  Uiso   1.00
H168   H     0.10617   0.55174   0.77102   0.00000  Uiso   1.00
H169   H     0.05038   0.49245   0.86145   0.00000  Uiso   1.00
H170   H     0.99236   0.58542   0.80683   0.00000  Uiso   1.00
C171   C     0.22320   0.03020   0.68010   0.00000  Uiso   1.00
C172   C     0.13780   0.68370   0.94700   0.00000  Uiso   1.00
C173   C     0.76350   0.65800   0.81520   0.00000  Uiso   1.00
C174   C     0.36690   0.12710   0.70080   0.00000  Uiso   1.00
C175   C     0.79390   0.59150   0.76610   0.00000  Uiso   1.00
H176   H     0.85135   0.59968   0.72208   0.00000  Uiso   1.00
C177   C     0.14840   0.97560   0.66770   0.00000  Uiso   1.00
C178   C     0.36270   0.53320   0.86500   0.00000  Uiso   1.00
H179   H     0.32137   0.58672   0.83376   0.00000  Uiso   1.00
H180   H     0.37004   0.54973   0.91493   0.00000  Uiso   1.00
H181   H     0.42789   0.52326   0.82852   0.00000  Uiso   1.00
C182   C     0.65890   0.50130   0.84590   0.00000  Uiso   1.00
C183   C     0.53690   0.64200   0.52590   0.00000  Uiso   1.00
H184   H     0.60700   0.62414   0.52778   0.00000  Uiso   1.00
H185   H     0.52894   0.65212   0.46807   0.00000  Uiso   1.00
H186   H     0.51212   0.70241   0.54369   0.00000  Uiso   1.00
C187   C     0.74300   0.51460   0.77970   0.00000  Uiso   1.00
C188   C     0.63240   0.56610   0.89750   0.00000  Uiso   1.00
H189   H     0.57830   0.55632   0.94462   0.00000  Uiso   1.00
C190   C     0.59930   0.41810   0.86700   0.00000  Uiso   1.00
C191   C     0.28360   0.08140   0.61140   0.00000  Uiso   1.00
H192   H     0.27716   0.08587   0.55598   0.00000  Uiso   1.00
C193   C     0.68390   0.64260   0.88040   0.00000  Uiso   1.00
H194   H     0.66366   0.68687   0.91505   0.00000  Uiso   1.00
C195   C     0.27700   0.74270   0.65450   0.00000  Uiso   1.00
H196   H     0.24379   0.77487   0.69947   0.00000  Uiso   1.00
H197   H     0.32456   0.68776   0.67578   0.00000  Uiso   1.00
H198   H     0.31192   0.78972   0.60639   0.00000  Uiso   1.00
C199   C     0.14870   0.49350   0.98820   0.00000  Uiso   1.00
H200   H     0.08652   0.46370   1.01418   0.00000  Uiso   1.00
H201   H     0.17635   0.49876   1.03450   0.00000  Uiso   1.00
C202   C     0.31390   0.60350   0.53070   0.00000  Uiso   1.00
H203   H     0.30047   0.55996   0.50052   0.00000  Uiso   1.00
H204   H     0.34678   0.65739   0.48756   0.00000  Uiso   1.00
C205   C     0.81910   0.74370   0.79600   0.00000  Uiso   1.00
C206   C     0.12500   0.27310   0.99150   0.00000  Uiso   1.00
H207   H     0.15115   0.20371   1.00574   0.00000  Uiso   1.00
H208   H     0.09067   0.29229   1.04335   0.00000  Uiso   1.00
H209   H     0.07850   0.28425   0.95447   0.00000  Uiso   1.00
C210   C     0.35490   0.12730   0.62370   0.00000  Uiso   1.00
H211   H     0.39803   0.16100   0.57509   0.00000  Uiso   1.00
O212   O     0.53290   0.20810   0.88710   0.00000  Uiso   1.00
H213   H     0.53489   0.21092   0.93717   0.00000  Uiso   1.00
H214   H     0.56031   0.14925   0.88491   0.00000  Uiso   1.00
C215   C     0.17990   0.70540   1.01110   0.00000  Uiso   1.00
H216   H     0.19867   0.77181   0.99000   0.00000  Uiso   1.00
H217   H     0.13026   0.70027   1.06404   0.00000  Uiso   1.00
H218   H     0.23840   0.65843   1.02120   0.00000  Uiso   1.00
C219   C     0.09230   0.57270   0.52770   0.00000  Uiso   1.00
H220   H     0.09518   0.60835   0.46832   0.00000  Uiso   1.00
H221   H     0.13542   0.51044   0.53099   0.00000  Uiso   1.00
H222   H     0.02422   0.56015   0.55534   0.00000  Uiso   1.00
O223   O     0.28510   0.09610   0.92070   0.00000  Uiso   1.00
O224   O     0.31630   0.92370   0.91270   0.00000  Uiso   1.00
O225   O     0.46460   0.02170   0.86350   0.00000  Uiso   1.00
C226   C     0.23930   0.02200   0.75500   0.00000  Uiso   1.00
H227   H     0.20221   0.98137   0.80344   0.00000  Uiso   1.00
C228   C     0.31140   0.07300   0.76540   0.00000  Uiso   1.00
loop_
_geom_bond_atom_site_label_1
_geom_bond_atom_site_label_2
_geom_bond_distance
_geom_bond_site_symmetry_2
_ccdc_geom_bond_type
Ni1    O6      2.053   1_655 S
Ni1    O12     2.084   1_655 S
Ni1    N16     2.044   .     S
Ni1    O24     2.081   1_655 S
Ni1    O5      2.049   .     S
Ni1    N27     2.048   .     S
Ni2    O7      2.059   .     S
Ni2    O8      2.130   .     S
Ni2    O11     2.009   .     S
Ni2    N28     2.044   .     S
Ni2    O98     2.114   .     S
Ni2    N15     2.058   .     S
S3     O29     1.463   .     S
S3     O33     1.459   .     S
S3     O40     1.468   .     S
S3     C73     1.763   .     S
S4     O109    1.560   .     S
S4     O110    1.481   1_565 S
S4     O111    1.642   .     S
S4     C114    1.860   .     S
O5     C63     1.204   .     S
O6     Ni1     2.053   1_455 S
O6     C91     1.270   .     S
O7     C42     1.240   .     S
O8     H9      0.941   .     S
O8     H10     0.936   .     S
O11    C76     1.260   .     S
O12    Ni1     2.084   1_455 S
O12    H13     0.880   1_455 S
O12    H14     0.882   .     S
H13    O12     0.880   1_655 S
N15    N31     1.338   .     S
N15    C44     1.307   .     S
N16    N17     1.328   .     S
N16    C41     1.349   .     S
N17    H18     0.881   .     S
N17    C58     1.349   .     S
N19    H20     0.880   1_655 S
N19    N27     1.361   .     S
N19    C36     1.336   .     S
H20    N19     0.880   1_455 S
N21    H22     0.879   .     S
N21    C47     1.301   .     S
N21    N28     1.347   .     S
O23    C42     1.242   .     S
O24    Ni1     2.081   1_455 S
O24    H25     0.873   .     S
O24    H26     0.875   .     S
N27    C45     1.370   .     S
N28    C35     1.337   .     S
O30    C91     1.265   .     S
N31    H32     0.879   .     S
N31    C46     1.334   .     S
O34    C63     1.212   1_565 S
C35    C38     1.414   .     S
C35    C49     1.478   .     S
C36    C43     1.370   .     S
C36    C105    1.496   .     S
O37    C76     1.210   .     S
C38    C88     1.505   .     S
C38    C47     1.402   .     S
C39    C41     1.359   .     S
C39    C85     1.535   .     S
C39    C58     1.399   .     S
C41    C53     1.479   .     S
C42    C60     1.474   .     S
C43    C45     1.401   .     S
C43    C88     1.468   .     S
C44    C48     1.373   .     S
C44    C64     1.534   .     S
C45    C81     1.456   .     S
C46    C92     1.490   .     S
C46    C48     1.369   .     S
C47    C69     1.472   .     S
C48    C85     1.505   .     S
C49    H50     0.979   .     S
C49    H51     0.980   .     S
C49    H52     0.980   .     S
C53    H54     0.980   .     S
C53    H55     0.980   .     S
C53    H56     0.980   1_655 S
H56    C53     0.980   1_455 S
C57    C63     1.519   1_565 S
C57    C77     1.359   .     S
C57    C112    1.315   .     S
C58    C101    1.496   .     S
C59    C61     1.391   .     S
C59    C79     1.358   .     S
C59    C91     1.500   .     S
C60    C96     1.360   .     S
C60    C114    1.307   .     S
C61    H62     0.950   .     S
C61    C73     1.366   .     S
C63    O34     1.212   1_545 S
C63    C57     1.519   1_545 S
C64    H65     0.980   .     S
C64    H66     0.980   .     S
C64    H67     0.980   .     S
C68    C73     1.407   .     S
C68    C74     1.403   .     S
C68    C76     1.501   .     S
C69    H70     0.979   .     S
C69    H71     0.981   .     S
C69    H72     0.980   .     S
C74    H75     0.950   .     S
C74    C79     1.356   .     S
C77    H78     0.950   .     S
C77    C96     1.392   .     S
C79    H80     0.950   .     S
C81    H82     0.981   .     S
C81    H83     0.980   .     S
C81    H84     0.980   .     S
C85    H86     0.990   .     S
C85    H87     0.989   .     S
C88    H89     0.990   .     S
C88    H90     0.990   .     S
C92    H93     0.979   .     S
C92    H94     0.980   .     S
C92    H95     0.981   .     S
C96    H97     0.950   .     S
O98    H99     0.870   .     S
O98    H100    0.871   .     S
C101   H102    0.980   .     S
C101   H103    0.980   .     S
C101   H104    0.980   .     S
C105   H106    0.980   .     S
C105   H107    0.980   .     S
C105   H108    0.979   .     S
O110   S4      1.481   1_545 S
C112   H113    0.950   1_565 S
C112   C114    1.436   .     S
H113   C112    0.950   1_545 S
Ni115  O120    2.053   1_455 S
Ni115  O126    2.084   1_455 S
Ni115  N130    2.044   .     S
Ni115  O138    2.081   1_455 S
Ni115  O119    2.049   .     S
Ni115  N141    2.048   .     S
Ni116  O121    2.059   .     S
Ni116  O122    2.130   .     S
Ni116  O125    2.009   .     S
Ni116  N142    2.044   .     S
Ni116  O212    2.114   .     S
Ni116  N129    2.058   .     S
S117   O143    1.463   .     S
S117   O147    1.459   .     S
S117   O154    1.468   .     S
S117   C187    1.763   .     S
S118   O223    1.560   .     S
S118   O224    1.481   1_545 S
S118   O225    1.642   .     S
S118   C228    1.860   .     S
O119   C177    1.204   .     S
O120   Ni115   2.053   1_655 S
O120   C205    1.270   .     S
O121   C156    1.240   .     S
O122   H123    0.941   .     S
O122   H124    0.936   .     S
O125   C190    1.260   .     S
O126   Ni115   2.084   1_655 S
O126   H127    0.880   1_655 S
O126   H128    0.882   .     S
H127   O126    0.880   1_455 S
N129   N145    1.338   .     S
N129   C158    1.307   .     S
N130   N131    1.328   .     S
N130   C155    1.349   .     S
N131   H132    0.881   .     S
N131   C172    1.349   .     S
N133   H134    0.880   1_455 S
N133   N141    1.361   .     S
N133   C150    1.336   .     S
H134   N133    0.880   1_655 S
N135   H136    0.879   .     S
N135   C161    1.301   .     S
N135   N142    1.347   .     S
O137   C156    1.242   .     S
O138   Ni115   2.081   1_655 S
O138   H139    0.873   .     S
O138   H140    0.875   .     S
N141   C159    1.370   .     S
N142   C149    1.337   .     S
O144   C205    1.265   .     S
N145   H146    0.879   .     S
N145   C160    1.334   .     S
O148   C177    1.212   1_545 S
C149   C152    1.414   .     S
C149   C163    1.478   .     S
C150   C157    1.370   .     S
C150   C219    1.496   .     S
O151   C190    1.210   .     S
C152   C202    1.505   .     S
C152   C161    1.402   .     S
C153   C155    1.359   .     S
C153   C199    1.535   .     S
C153   C172    1.399   .     S
C155   C167    1.479   .     S
C156   C174    1.474   .     S
C157   C159    1.401   .     S
C157   C202    1.468   .     S
C158   C162    1.373   .     S
C158   C178    1.534   .     S
C159   C195    1.456   .     S
C160   C206    1.490   .     S
C160   C162    1.369   .     S
C161   C183    1.472   .     S
C162   C199    1.505   .     S
C163   H164    0.979   .     S
C163   H165    0.980   .     S
C163   H166    0.980   .     S
C167   H168    0.980   .     S
C167   H169    0.980   .     S
C167   H170    0.980   1_455 S
H170   C167    0.980   1_655 S
C171   C177    1.519   1_545 S
C171   C191    1.359   .     S
C171   C226    1.315   .     S
C172   C215    1.496   .     S
C173   C175    1.391   .     S
C173   C193    1.358   .     S
C173   C205    1.500   .     S
C174   C210    1.360   .     S
C174   C228    1.307   .     S
C175   H176    0.950   .     S
C175   C187    1.366   .     S
C177   O148    1.212   1_565 S
C177   C171    1.519   1_565 S
C178   H179    0.980   .     S
C178   H180    0.980   .     S
C178   H181    0.980   .     S
C182   C187    1.407   .     S
C182   C188    1.403   .     S
C182   C190    1.501   .     S
C183   H184    0.979   .     S
C183   H185    0.981   .     S
C183   H186    0.980   .     S
C188   H189    0.950   .     S
C188   C193    1.356   .     S
C191   H192    0.950   .     S
C191   C210    1.392   .     S
C193   H194    0.950   .     S
C195   H196    0.981   .     S
C195   H197    0.980   .     S
C195   H198    0.980   .     S
C199   H200    0.990   .     S
C199   H201    0.989   .     S
C202   H203    0.990   .     S
C202   H204    0.990   .     S
C206   H207    0.979   .     S
C206   H208    0.980   .     S
C206   H209    0.981   .     S
C210   H211    0.950   .     S
O212   H213    0.870   .     S
O212   H214    0.871   .     S
C215   H216    0.980   .     S
C215   H217    0.980   .     S
C215   H218    0.980   .     S
C219   H220    0.980   .     S
C219   H221    0.980   .     S
C219   H222    0.979   .     S
O224   S118    1.481   1_565 S
C226   H227    0.950   1_545 S
C226   C228    1.436   .     S
H227   C226    0.950   1_565 S
