data_GEYMUU_FSR
_audit_creation_date              2024-06-11
_audit_creation_method            'Materials Studio'
_symmetry_space_group_name_H-M    'P1'
_symmetry_Int_Tables_number       1
_symmetry_cell_setting            triclinic
loop_
_symmetry_equiv_pos_as_xyz
  x,y,z
_cell_length_a                    10.9363
_cell_length_b                    16.0810
_cell_length_c                    22.4350
_cell_angle_alpha                 90.0000
_cell_angle_beta                  94.9260
_cell_angle_gamma                 90.0000
loop_
_atom_site_label
_atom_site_type_symbol
_atom_site_fract_x
_atom_site_fract_y
_atom_site_fract_z
_atom_site_U_iso_or_equiv
_atom_site_adp_type
_atom_site_occupancy
Mo1    Mo    0.73811   0.98393   0.11752   0.04358  Uani   1.00
Mo2    Mo    0.55945   0.09866   0.86365   0.04704  Uani   1.00
Mo3    Mo    0.80248   0.06282   0.97485   0.05134  Uani   1.00
Mo4    Mo    0.51289   0.87947   0.86816   0.05153  Uani   1.00
Mo5    Mo    0.73357   0.84746   0.99220   0.05497  Uani   1.00
Mo6    Mo    0.57526   0.21499   0.99863   0.06153  Uani   1.00
O7     O     0.53150   0.91110   0.97380   0.03256  Uani   1.00
O8     O     0.53310   0.99810   0.06640   0.03673  Uani   1.00
O9     O     0.76380   0.88500   0.06930   0.07254  Uani   1.00
O10    O     0.81450   0.04320   0.06150   0.07537  Uani   1.00
O11    O     0.60790   0.91440   0.14550   0.08684  Uani   1.00
O12    O     0.84740   0.97170   0.17300   0.07416  Uani   1.00
O13    O     0.65110   0.07500   0.14110   0.08338  Uani   1.00
O14    O     0.56890   0.98010   0.84390   0.08375  Uani   1.00
O15    O     0.58850   0.13940   0.79800   0.07149  Uani   1.00
O16    O     0.72400   0.07880   0.90000   0.09082  Uani   1.00
O17    O     0.55230   0.18860   0.91190   0.08673  Uani   1.00
O18    O     0.73120   0.16740   0.99770   0.09313  Uani   1.00
O19    O     0.81160   0.94830   0.96720   0.08002  Uani   1.00
O20    O     0.94260   0.09240   0.96620   0.09508  Uani   1.00
O21    O     0.51150   0.82230   0.80710   0.06407  Uani   1.00
O22    O     0.84390   0.77900   0.98710   0.07856  Uani   1.00
O23    O     0.60460   0.31650   0.99530   0.08099  Uani   1.00
O24    O     0.65820   0.84740   0.91000   0.10117  Uani   1.00
O25    O     0.56770   0.19730   0.07830   0.09855  Uani   1.00
O26    O     0.60250   0.78120   0.00970   0.10196  Uani   1.00
Cu27   Cu    0.72733   0.14960   0.70874   0.05025  Uani   1.00
O28    O     0.84790   0.15670   0.62870   0.10478  Uani   1.00
H29    H     0.86550   0.20760   0.62370   0.12600  Uiso   1.00
H30    H     0.80390   0.14120   0.59770   0.12600  Uiso   1.00
O31    O     0.58860   0.09840   0.65920   0.08025  Uani   1.00
H32    H     0.59860   0.10080   0.62210   0.09600  Uiso   1.00
H33    H     0.58250   0.04850   0.67110   0.09600  Uiso   1.00
N34    N     0.84040   0.20810   0.77040   0.04600  Uani   1.00
N35    N     0.66020   0.26370   0.70000   0.04536  Uani   1.00
O36    O     0.70620   0.54170   0.76530   0.05357  Uani   1.00
O37    O     0.86430   0.45900   0.78800   0.05662  Uani   1.00
O38    O     0.64390   0.38670   0.85640   0.07502  Uani   1.00
O39    O     0.80560   0.41100   0.91850   0.10150  Uani   1.00
H40    H     0.76080   0.44770   0.92970   0.15200  Uiso   1.00
C41    C     0.92790   0.17130   0.80310   0.06306  Uani   1.00
H42    H     0.96290   0.12330   0.78890   0.07600  Uiso   1.00
C43    C     0.97130   0.20330   0.86050   0.07025  Uani   1.00
H44    H     0.03860   0.17980   0.88250   0.08400  Uiso   1.00
C45    C     0.91040   0.26990   0.88210   0.07182  Uani   1.00
H46    H     0.93200   0.28880   0.92080   0.08600  Uiso   1.00
C47    C     0.82000   0.30810   0.84830   0.04985  Uani   1.00
C48    C     0.79200   0.28030   0.78790   0.04472  Uani   1.00
C49    C     0.75180   0.37340   0.87490   0.06483  Uani   1.00
C50    C     0.58540   0.28980   0.65260   0.05139  Uani   1.00
H51    H     0.55010   0.25040   0.62610   0.06200  Uiso   1.00
C52    C     0.56030   0.37060   0.64230   0.05274  Uani   1.00
H53    H     0.50610   0.38660   0.61010   0.06300  Uiso   1.00
C54    C     0.61530   0.42860   0.67980   0.04899  Uani   1.00
H55    H     0.59940   0.48470   0.67250   0.05900  Uiso   1.00
C56    C     0.69420   0.40610   0.72830   0.04027  Uani   1.00
C57    C     0.71200   0.32030   0.73920   0.03688  Uani   1.00
C58    C     0.76080   0.47310   0.76370   0.04248  Uani   1.00
Mo59   Mo    0.76189   0.48393   0.38248   0.04358  Uani   1.00
Mo60   Mo    0.94055   0.59866   0.63635   0.04704  Uani   1.00
Mo61   Mo    0.69752   0.56282   0.52515   0.05134  Uani   1.00
Mo62   Mo    0.98711   0.37947   0.63184   0.05153  Uani   1.00
Mo63   Mo    0.76643   0.34746   0.50780   0.05497  Uani   1.00
Mo64   Mo    0.92474   0.71499   0.50137   0.06153  Uani   1.00
O65    O     0.96850   0.41110   0.52620   0.03256  Uani   1.00
O66    O     0.96690   0.49810   0.43360   0.03673  Uani   1.00
O67    O     0.73620   0.38500   0.43070   0.07254  Uani   1.00
O68    O     0.68550   0.54320   0.43850   0.07537  Uani   1.00
O69    O     0.89210   0.41440   0.35450   0.08684  Uani   1.00
O70    O     0.65260   0.47170   0.32700   0.07416  Uani   1.00
O71    O     0.84890   0.57500   0.35890   0.08338  Uani   1.00
O72    O     0.93110   0.48010   0.65610   0.08375  Uani   1.00
O73    O     0.91150   0.63940   0.70200   0.07149  Uani   1.00
O74    O     0.77600   0.57880   0.60000   0.09082  Uani   1.00
O75    O     0.94770   0.68860   0.58810   0.08673  Uani   1.00
O76    O     0.76880   0.66740   0.50230   0.09313  Uani   1.00
O77    O     0.68840   0.44830   0.53280   0.08002  Uani   1.00
O78    O     0.55740   0.59240   0.53380   0.09508  Uani   1.00
O79    O     0.98850   0.32230   0.69290   0.06407  Uani   1.00
O80    O     0.65610   0.27900   0.51290   0.07856  Uani   1.00
O81    O     0.89540   0.81650   0.50470   0.08099  Uani   1.00
O82    O     0.84180   0.34740   0.59000   0.10117  Uani   1.00
O83    O     0.93230   0.69730   0.42170   0.09855  Uani   1.00
O84    O     0.89750   0.28120   0.49030   0.10196  Uani   1.00
Cu85   Cu    0.77267   0.64960   0.79126   0.05025  Uani   1.00
O86    O     0.65210   0.65670   0.87130   0.10478  Uani   1.00
H87    H     0.63450   0.70760   0.87630   0.12600  Uiso   1.00
H88    H     0.69610   0.64120   0.90230   0.12600  Uiso   1.00
O89    O     0.91140   0.59840   0.84080   0.08025  Uani   1.00
H90    H     0.90140   0.60080   0.87790   0.09600  Uiso   1.00
H91    H     0.91750   0.54850   0.82890   0.09600  Uiso   1.00
N92    N     0.65960   0.70810   0.72960   0.04600  Uani   1.00
N93    N     0.83980   0.76370   0.80000   0.04536  Uani   1.00
O94    O     0.79380   0.04170   0.73470   0.05357  Uani   1.00
O95    O     0.63570   0.95900   0.71200   0.05662  Uani   1.00
O96    O     0.85610   0.88670   0.64360   0.07502  Uani   1.00
O97    O     0.69440   0.91100   0.58150   0.10150  Uani   1.00
H98    H     0.73920   0.94770   0.57030   0.15200  Uiso   1.00
C99    C     0.57210   0.67130   0.69690   0.06306  Uani   1.00
H100   H     0.53710   0.62330   0.71110   0.07600  Uiso   1.00
C101   C     0.52870   0.70330   0.63950   0.07025  Uani   1.00
H102   H     0.46140   0.67980   0.61750   0.08400  Uiso   1.00
C103   C     0.58960   0.76990   0.61790   0.07182  Uani   1.00
H104   H     0.56800   0.78880   0.57920   0.08600  Uiso   1.00
C105   C     0.68000   0.80810   0.65170   0.04985  Uani   1.00
C106   C     0.70800   0.78030   0.71210   0.04472  Uani   1.00
C107   C     0.74820   0.87340   0.62510   0.06483  Uani   1.00
C108   C     0.91460   0.78980   0.84740   0.05139  Uani   1.00
H109   H     0.94990   0.75040   0.87390   0.06200  Uiso   1.00
C110   C     0.93970   0.87060   0.85770   0.05274  Uani   1.00
H111   H     0.99390   0.88660   0.88990   0.06300  Uiso   1.00
C112   C     0.88470   0.92860   0.82020   0.04899  Uani   1.00
H113   H     0.90060   0.98470   0.82750   0.05900  Uiso   1.00
C114   C     0.80580   0.90610   0.77170   0.04027  Uani   1.00
C115   C     0.78800   0.82030   0.76080   0.03688  Uani   1.00
C116   C     0.73920   0.97310   0.73630   0.04248  Uani   1.00
Mo117  Mo    0.26189   0.01607   0.88248   0.04358  Uani   1.00
Mo118  Mo    0.44055   0.90134   0.13635   0.04704  Uani   1.00
Mo119  Mo    0.19752   0.93718   0.02515   0.05134  Uani   1.00
Mo120  Mo    0.48711   0.12053   0.13184   0.05153  Uani   1.00
Mo121  Mo    0.26643   0.15254   0.00780   0.05497  Uani   1.00
Mo122  Mo    0.42474   0.78501   0.00137   0.06153  Uani   1.00
O123   O     0.46850   0.08890   0.02620   0.03256  Uani   1.00
O124   O     0.46690   0.00190   0.93360   0.03673  Uani   1.00
O125   O     0.23620   0.11500   0.93070   0.07254  Uani   1.00
O126   O     0.18550   0.95680   0.93850   0.07537  Uani   1.00
O127   O     0.39210   0.08560   0.85450   0.08684  Uani   1.00
O128   O     0.15260   0.02830   0.82700   0.07416  Uani   1.00
O129   O     0.34890   0.92500   0.85890   0.08338  Uani   1.00
O130   O     0.43110   0.01990   0.15610   0.08375  Uani   1.00
O131   O     0.41150   0.86060   0.20200   0.07149  Uani   1.00
O132   O     0.27600   0.92120   0.10000   0.09082  Uani   1.00
O133   O     0.44770   0.81140   0.08810   0.08673  Uani   1.00
O134   O     0.26880   0.83260   0.00230   0.09313  Uani   1.00
O135   O     0.18840   0.05170   0.03280   0.08002  Uani   1.00
O136   O     0.05740   0.90760   0.03380   0.09508  Uani   1.00
O137   O     0.48850   0.17770   0.19290   0.06407  Uani   1.00
O138   O     0.15610   0.22100   0.01290   0.07856  Uani   1.00
O139   O     0.39540   0.68350   0.00470   0.08099  Uani   1.00
O140   O     0.34180   0.15260   0.09000   0.10117  Uani   1.00
O141   O     0.43230   0.80270   0.92170   0.09855  Uani   1.00
O142   O     0.39750   0.21880   0.99030   0.10196  Uani   1.00
Cu143  Cu    0.27267   0.85040   0.29126   0.05025  Uani   1.00
O144   O     0.15210   0.84330   0.37130   0.10478  Uani   1.00
H145   H     0.13450   0.79240   0.37630   0.12600  Uiso   1.00
H146   H     0.19610   0.85880   0.40230   0.12600  Uiso   1.00
O147   O     0.41140   0.90160   0.34080   0.08025  Uani   1.00
H148   H     0.40140   0.89920   0.37790   0.09600  Uiso   1.00
H149   H     0.41750   0.95150   0.32890   0.09600  Uiso   1.00
N150   N     0.15960   0.79190   0.22960   0.04600  Uani   1.00
N151   N     0.33980   0.73630   0.30000   0.04536  Uani   1.00
O152   O     0.29380   0.45830   0.23470   0.05357  Uani   1.00
O153   O     0.13570   0.54100   0.21200   0.05662  Uani   1.00
O154   O     0.35610   0.61330   0.14360   0.07502  Uani   1.00
O155   O     0.19440   0.58900   0.08150   0.10150  Uani   1.00
H156   H     0.23920   0.55230   0.07030   0.15200  Uiso   1.00
C157   C     0.07210   0.82870   0.19690   0.06306  Uani   1.00
H158   H     0.03710   0.87670   0.21110   0.07600  Uiso   1.00
C159   C     0.02870   0.79670   0.13950   0.07025  Uani   1.00
H160   H     0.96140   0.82020   0.11750   0.08400  Uiso   1.00
C161   C     0.08960   0.73010   0.11790   0.07182  Uani   1.00
H162   H     0.06800   0.71120   0.07920   0.08600  Uiso   1.00
C163   C     0.18000   0.69190   0.15170   0.04985  Uani   1.00
C164   C     0.20800   0.71970   0.21210   0.04472  Uani   1.00
C165   C     0.24820   0.62660   0.12510   0.06483  Uani   1.00
C166   C     0.41460   0.71020   0.34740   0.05139  Uani   1.00
H167   H     0.44990   0.74960   0.37390   0.06200  Uiso   1.00
C168   C     0.43970   0.62940   0.35770   0.05274  Uani   1.00
H169   H     0.49390   0.61340   0.38990   0.06300  Uiso   1.00
C170   C     0.38470   0.57140   0.32020   0.04899  Uani   1.00
H171   H     0.40060   0.51530   0.32750   0.05900  Uiso   1.00
C172   C     0.30580   0.59390   0.27170   0.04027  Uani   1.00
C173   C     0.28800   0.67970   0.26080   0.03688  Uani   1.00
C174   C     0.23920   0.52690   0.23630   0.04248  Uani   1.00
Mo175  Mo    0.23811   0.51607   0.61752   0.04358  Uani   1.00
Mo176  Mo    0.05945   0.40134   0.36365   0.04704  Uani   1.00
Mo177  Mo    0.30248   0.43718   0.47485   0.05134  Uani   1.00
Mo178  Mo    0.01289   0.62053   0.36816   0.05153  Uani   1.00
Mo179  Mo    0.23357   0.65254   0.49220   0.05497  Uani   1.00
Mo180  Mo    0.07526   0.28501   0.49863   0.06153  Uani   1.00
O181   O     0.03150   0.58890   0.47380   0.03256  Uani   1.00
O182   O     0.03310   0.50190   0.56640   0.03673  Uani   1.00
O183   O     0.26380   0.61500   0.56930   0.07254  Uani   1.00
O184   O     0.31450   0.45680   0.56150   0.07537  Uani   1.00
O185   O     0.10790   0.58560   0.64550   0.08684  Uani   1.00
O186   O     0.34740   0.52830   0.67300   0.07416  Uani   1.00
O187   O     0.15110   0.42500   0.64110   0.08338  Uani   1.00
O188   O     0.06890   0.51990   0.34390   0.08375  Uani   1.00
O189   O     0.08850   0.36060   0.29800   0.07149  Uani   1.00
O190   O     0.22400   0.42120   0.40000   0.09082  Uani   1.00
O191   O     0.05230   0.31140   0.41190   0.08673  Uani   1.00
O192   O     0.23120   0.33260   0.49770   0.09313  Uani   1.00
O193   O     0.31160   0.55170   0.46720   0.08002  Uani   1.00
O194   O     0.44260   0.40760   0.46620   0.09508  Uani   1.00
O195   O     0.01150   0.67770   0.30710   0.06407  Uani   1.00
O196   O     0.34390   0.72100   0.48710   0.07856  Uani   1.00
O197   O     0.10460   0.18350   0.49530   0.08099  Uani   1.00
O198   O     0.15820   0.65260   0.41000   0.10117  Uani   1.00
O199   O     0.06770   0.30270   0.57830   0.09855  Uani   1.00
O200   O     0.10250   0.71880   0.50970   0.10196  Uani   1.00
Cu201  Cu    0.22733   0.35040   0.20874   0.05025  Uani   1.00
O202   O     0.34790   0.34330   0.12870   0.10478  Uani   1.00
H203   H     0.36550   0.29240   0.12370   0.12600  Uiso   1.00
H204   H     0.30390   0.35880   0.09770   0.12600  Uiso   1.00
O205   O     0.08860   0.40160   0.15920   0.08025  Uani   1.00
H206   H     0.09860   0.39920   0.12210   0.09600  Uiso   1.00
H207   H     0.08250   0.45150   0.17110   0.09600  Uiso   1.00
N208   N     0.34040   0.29190   0.27040   0.04600  Uani   1.00
N209   N     0.16020   0.23630   0.20000   0.04536  Uani   1.00
O210   O     0.20620   0.95830   0.26530   0.05357  Uani   1.00
O211   O     0.36430   0.04100   0.28800   0.05662  Uani   1.00
O212   O     0.14390   0.11330   0.35640   0.07502  Uani   1.00
O213   O     0.30560   0.08900   0.41850   0.10150  Uani   1.00
H214   H     0.26080   0.05230   0.42970   0.15200  Uiso   1.00
C215   C     0.42790   0.32870   0.30310   0.06306  Uani   1.00
H216   H     0.46290   0.37670   0.28890   0.07600  Uiso   1.00
C217   C     0.47130   0.29670   0.36050   0.07025  Uani   1.00
H218   H     0.53860   0.32020   0.38250   0.08400  Uiso   1.00
C219   C     0.41040   0.23010   0.38210   0.07182  Uani   1.00
H220   H     0.43200   0.21120   0.42080   0.08600  Uiso   1.00
C221   C     0.32000   0.19190   0.34830   0.04985  Uani   1.00
C222   C     0.29200   0.21970   0.28790   0.04472  Uani   1.00
C223   C     0.25180   0.12660   0.37490   0.06483  Uani   1.00
C224   C     0.08540   0.21020   0.15260   0.05139  Uani   1.00
H225   H     0.05010   0.24960   0.12610   0.06200  Uiso   1.00
C226   C     0.06030   0.12940   0.14230   0.05274  Uani   1.00
H227   H     0.00610   0.11340   0.11010   0.06300  Uiso   1.00
C228   C     0.11530   0.07140   0.17980   0.04899  Uani   1.00
H229   H     0.09940   0.01530   0.17250   0.05900  Uiso   1.00
C230   C     0.19420   0.09390   0.22830   0.04027  Uani   1.00
C231   C     0.21200   0.17970   0.23920   0.03688  Uani   1.00
C232   C     0.26080   0.02690   0.26370   0.04248  Uani   1.00
P233   P     0.50000   0.00000  -0.00000   0.03089  Uani   1.00
P234   P     0.00000   0.50000   0.50000   0.03089  Uani   1.00
loop_
_atom_site_aniso_label
_atom_site_aniso_U_11
_atom_site_aniso_U_22
_atom_site_aniso_U_33
_atom_site_aniso_U_12
_atom_site_aniso_U_13
_atom_site_aniso_U_23
Mo1       0.03160   0.04880   0.04860   0.00500  -0.00670   0.00080
Mo2       0.05340   0.04500   0.04310  -0.00070   0.00630   0.00700
Mo3       0.02890   0.06030   0.06420  -0.00330   0.00050   0.01090
Mo4       0.05280   0.05610   0.04570  -0.00320   0.00430  -0.01190
Mo5       0.04220   0.06100   0.06080   0.02120  -0.00080   0.00120
Mo6       0.07730   0.03620   0.06990  -0.01510  -0.00050   0.00650
O7        0.03200   0.02300   0.04300  -0.00100   0.00500   0.00900
O8        0.03200   0.03900   0.03900   0.00400   0.00200   0.00200
O9        0.10500   0.05100   0.06400   0.00200   0.02100  -0.00100
O10       0.11100   0.05600   0.06300  -0.00200   0.03000   0.00500
O11       0.05900   0.04100   0.16800  -0.00600   0.05300  -0.01400
O12       0.06900   0.06900   0.07700  -0.00900  -0.03700   0.01300
O13       0.04600   0.04900   0.16000  -0.00300   0.03700  -0.00500
O14       0.05700   0.05300   0.14700   0.00300   0.04200  -0.01600
O15       0.06100   0.09500   0.06000   0.01100   0.01400   0.03100
O16       0.10400   0.08000   0.08000   0.04400  -0.04100  -0.03100
O17       0.09300   0.08000   0.07900   0.05000  -0.04000  -0.02700
O18       0.12800   0.07400   0.06900   0.05200  -0.04000  -0.02600
O19       0.13800   0.05200   0.05400   0.00100   0.03100   0.00200
O20       0.04600   0.15300   0.08800  -0.03800   0.01600   0.00100
O21       0.07100   0.06900   0.05200   0.00800   0.00400  -0.02200
O22       0.09100   0.06400   0.08200   0.04600   0.01500   0.00500
O23       0.11000   0.03800   0.09500  -0.01400   0.00900  -0.00400
O24       0.07000   0.15200   0.07800  -0.02800  -0.01400   0.04600
O25       0.06700   0.14500   0.08100  -0.03500  -0.00900   0.04800
O26       0.07500   0.15000   0.07800  -0.02700  -0.01000   0.03800
Cu27      0.06880   0.01720   0.06470   0.00010   0.00540  -0.00020
O28       0.14400   0.07900   0.09700   0.00900   0.04300   0.00300
O31       0.12600   0.02500   0.08300  -0.00800  -0.03000   0.00000
N34       0.04500   0.02300   0.07000  -0.00200   0.00500   0.00500
N35       0.05300   0.02900   0.05500  -0.00100   0.01000  -0.00200
O36       0.06700   0.01400   0.08000   0.00300   0.00800  -0.00100
O37       0.05800   0.02200   0.09100  -0.00700   0.01300  -0.00900
O38       0.09100   0.05800   0.08100   0.00900   0.03600   0.00500
O39       0.14600   0.08300   0.07300  -0.00200  -0.00500  -0.02700
C41       0.03700   0.03100   0.12000   0.00200  -0.00000   0.01100
C43       0.05600   0.05200   0.09900  -0.01100  -0.01500   0.02300
C45       0.07800   0.04700   0.08700  -0.01300  -0.01300   0.01000
C47       0.05100   0.03200   0.06500  -0.01200  -0.00400   0.01200
C48       0.04100   0.01800   0.07500  -0.00500   0.00400   0.00500
C49       0.08700   0.05000   0.05900  -0.00300   0.01500  -0.00500
C50       0.05800   0.04300   0.05200  -0.00400  -0.00200  -0.00000
C52       0.06200   0.03700   0.05900   0.00900   0.00400   0.00400
C54       0.05300   0.02900   0.06600   0.00800   0.01100   0.01400
C56       0.04400   0.02200   0.05700  -0.00200   0.01700   0.00200
C57       0.04100   0.02000   0.05000   0.00100   0.00600   0.00300
C58       0.05200   0.01900   0.05700   0.00600   0.00800   0.00300
Mo59      0.03160   0.04880   0.04860  -0.00500  -0.00670  -0.00080
Mo60      0.05340   0.04500   0.04310   0.00070   0.00630  -0.00700
Mo61      0.02890   0.06030   0.06420   0.00330   0.00050  -0.01090
Mo62      0.05280   0.05610   0.04570   0.00320   0.00430   0.01190
Mo63      0.04220   0.06100   0.06080  -0.02120  -0.00080  -0.00120
Mo64      0.07730   0.03620   0.06990   0.01510  -0.00050  -0.00650
O65       0.03200   0.02300   0.04300   0.00100   0.00500  -0.00900
O66       0.03200   0.03900   0.03900  -0.00400   0.00200  -0.00200
O67       0.10500   0.05100   0.06400  -0.00200   0.02100   0.00100
O68       0.11100   0.05600   0.06300   0.00200   0.03000  -0.00500
O69       0.05900   0.04100   0.16800   0.00600   0.05300   0.01400
O70       0.06900   0.06900   0.07700   0.00900  -0.03700  -0.01300
O71       0.04600   0.04900   0.16000   0.00300   0.03700   0.00500
O72       0.05700   0.05300   0.14700  -0.00300   0.04200   0.01600
O73       0.06100   0.09500   0.06000  -0.01100   0.01400  -0.03100
O74       0.10400   0.08000   0.08000  -0.04400  -0.04100   0.03100
O75       0.09300   0.08000   0.07900  -0.05000  -0.04000   0.02700
O76       0.12800   0.07400   0.06900  -0.05200  -0.04000   0.02600
O77       0.13800   0.05200   0.05400  -0.00100   0.03100  -0.00200
O78       0.04600   0.15300   0.08800   0.03800   0.01600  -0.00100
O79       0.07100   0.06900   0.05200  -0.00800   0.00400   0.02200
O80       0.09100   0.06400   0.08200  -0.04600   0.01500  -0.00500
O81       0.11000   0.03800   0.09500   0.01400   0.00900   0.00400
O82       0.07000   0.15200   0.07800   0.02800  -0.01400  -0.04600
O83       0.06700   0.14500   0.08100   0.03500  -0.00900  -0.04800
O84       0.07500   0.15000   0.07800   0.02700  -0.01000  -0.03800
Cu85      0.06880   0.01720   0.06470  -0.00010   0.00540   0.00020
O86       0.14400   0.07900   0.09700  -0.00900   0.04300  -0.00300
O89       0.12600   0.02500   0.08300   0.00800  -0.03000   0.00000
N92       0.04500   0.02300   0.07000   0.00200   0.00500  -0.00500
N93       0.05300   0.02900   0.05500   0.00100   0.01000   0.00200
O94       0.06700   0.01400   0.08000  -0.00300   0.00800   0.00100
O95       0.05800   0.02200   0.09100   0.00700   0.01300   0.00900
O96       0.09100   0.05800   0.08100  -0.00900   0.03600  -0.00500
O97       0.14600   0.08300   0.07300   0.00200  -0.00500   0.02700
C99       0.03700   0.03100   0.12000  -0.00200  -0.00000  -0.01100
C101      0.05600   0.05200   0.09900   0.01100  -0.01500  -0.02300
C103      0.07800   0.04700   0.08700   0.01300  -0.01300  -0.01000
C105      0.05100   0.03200   0.06500   0.01200  -0.00400  -0.01200
C106      0.04100   0.01800   0.07500   0.00500   0.00400  -0.00500
C107      0.08700   0.05000   0.05900   0.00300   0.01500   0.00500
C108      0.05800   0.04300   0.05200   0.00400  -0.00200   0.00000
C110      0.06200   0.03700   0.05900  -0.00900   0.00400  -0.00400
C112      0.05300   0.02900   0.06600  -0.00800   0.01100  -0.01400
C114      0.04400   0.02200   0.05700   0.00200   0.01700  -0.00200
C115      0.04100   0.02000   0.05000  -0.00100   0.00600  -0.00300
C116      0.05200   0.01900   0.05700  -0.00600   0.00800  -0.00300
Mo117     0.03160   0.04880   0.04860   0.00500  -0.00670   0.00080
Mo118     0.05340   0.04500   0.04310  -0.00070   0.00630   0.00700
Mo119     0.02890   0.06030   0.06420  -0.00330   0.00050   0.01090
Mo120     0.05280   0.05610   0.04570  -0.00320   0.00430  -0.01190
Mo121     0.04220   0.06100   0.06080   0.02120  -0.00080   0.00120
Mo122     0.07730   0.03620   0.06990  -0.01510  -0.00050   0.00650
O123      0.03200   0.02300   0.04300  -0.00100   0.00500   0.00900
O124      0.03200   0.03900   0.03900   0.00400   0.00200   0.00200
O125      0.10500   0.05100   0.06400   0.00200   0.02100  -0.00100
O126      0.11100   0.05600   0.06300  -0.00200   0.03000   0.00500
O127      0.05900   0.04100   0.16800  -0.00600   0.05300  -0.01400
O128      0.06900   0.06900   0.07700  -0.00900  -0.03700   0.01300
O129      0.04600   0.04900   0.16000  -0.00300   0.03700  -0.00500
O130      0.05700   0.05300   0.14700   0.00300   0.04200  -0.01600
O131      0.06100   0.09500   0.06000   0.01100   0.01400   0.03100
O132      0.10400   0.08000   0.08000   0.04400  -0.04100  -0.03100
O133      0.09300   0.08000   0.07900   0.05000  -0.04000  -0.02700
O134      0.12800   0.07400   0.06900   0.05200  -0.04000  -0.02600
O135      0.13800   0.05200   0.05400   0.00100   0.03100   0.00200
O136      0.04600   0.15300   0.08800  -0.03800   0.01600   0.00100
O137      0.07100   0.06900   0.05200   0.00800   0.00400  -0.02200
O138      0.09100   0.06400   0.08200   0.04600   0.01500   0.00500
O139      0.11000   0.03800   0.09500  -0.01400   0.00900  -0.00400
O140      0.07000   0.15200   0.07800  -0.02800  -0.01400   0.04600
O141      0.06700   0.14500   0.08100  -0.03500  -0.00900   0.04800
O142      0.07500   0.15000   0.07800  -0.02700  -0.01000   0.03800
Cu143     0.06880   0.01720   0.06470   0.00010   0.00540  -0.00020
O144      0.14400   0.07900   0.09700   0.00900   0.04300   0.00300
O147      0.12600   0.02500   0.08300  -0.00800  -0.03000   0.00000
N150      0.04500   0.02300   0.07000  -0.00200   0.00500   0.00500
N151      0.05300   0.02900   0.05500  -0.00100   0.01000  -0.00200
O152      0.06700   0.01400   0.08000   0.00300   0.00800  -0.00100
O153      0.05800   0.02200   0.09100  -0.00700   0.01300  -0.00900
O154      0.09100   0.05800   0.08100   0.00900   0.03600   0.00500
O155      0.14600   0.08300   0.07300  -0.00200  -0.00500  -0.02700
C157      0.03700   0.03100   0.12000   0.00200  -0.00000   0.01100
C159      0.05600   0.05200   0.09900  -0.01100  -0.01500   0.02300
C161      0.07800   0.04700   0.08700  -0.01300  -0.01300   0.01000
C163      0.05100   0.03200   0.06500  -0.01200  -0.00400   0.01200
C164      0.04100   0.01800   0.07500  -0.00500   0.00400   0.00500
C165      0.08700   0.05000   0.05900  -0.00300   0.01500  -0.00500
C166      0.05800   0.04300   0.05200  -0.00400  -0.00200  -0.00000
C168      0.06200   0.03700   0.05900   0.00900   0.00400   0.00400
C170      0.05300   0.02900   0.06600   0.00800   0.01100   0.01400
C172      0.04400   0.02200   0.05700  -0.00200   0.01700   0.00200
C173      0.04100   0.02000   0.05000   0.00100   0.00600   0.00300
C174      0.05200   0.01900   0.05700   0.00600   0.00800   0.00300
Mo175     0.03160   0.04880   0.04860  -0.00500  -0.00670  -0.00080
Mo176     0.05340   0.04500   0.04310   0.00070   0.00630  -0.00700
Mo177     0.02890   0.06030   0.06420   0.00330   0.00050  -0.01090
Mo178     0.05280   0.05610   0.04570   0.00320   0.00430   0.01190
Mo179     0.04220   0.06100   0.06080  -0.02120  -0.00080  -0.00120
Mo180     0.07730   0.03620   0.06990   0.01510  -0.00050  -0.00650
O181      0.03200   0.02300   0.04300   0.00100   0.00500  -0.00900
O182      0.03200   0.03900   0.03900  -0.00400   0.00200  -0.00200
O183      0.10500   0.05100   0.06400  -0.00200   0.02100   0.00100
O184      0.11100   0.05600   0.06300   0.00200   0.03000  -0.00500
O185      0.05900   0.04100   0.16800   0.00600   0.05300   0.01400
O186      0.06900   0.06900   0.07700   0.00900  -0.03700  -0.01300
O187      0.04600   0.04900   0.16000   0.00300   0.03700   0.00500
O188      0.05700   0.05300   0.14700  -0.00300   0.04200   0.01600
O189      0.06100   0.09500   0.06000  -0.01100   0.01400  -0.03100
O190      0.10400   0.08000   0.08000  -0.04400  -0.04100   0.03100
O191      0.09300   0.08000   0.07900  -0.05000  -0.04000   0.02700
O192      0.12800   0.07400   0.06900  -0.05200  -0.04000   0.02600
O193      0.13800   0.05200   0.05400  -0.00100   0.03100  -0.00200
O194      0.04600   0.15300   0.08800   0.03800   0.01600  -0.00100
O195      0.07100   0.06900   0.05200  -0.00800   0.00400   0.02200
O196      0.09100   0.06400   0.08200  -0.04600   0.01500  -0.00500
O197      0.11000   0.03800   0.09500   0.01400   0.00900   0.00400
O198      0.07000   0.15200   0.07800   0.02800  -0.01400  -0.04600
O199      0.06700   0.14500   0.08100   0.03500  -0.00900  -0.04800
O200      0.07500   0.15000   0.07800   0.02700  -0.01000  -0.03800
Cu201     0.06880   0.01720   0.06470  -0.00010   0.00540   0.00020
O202      0.14400   0.07900   0.09700  -0.00900   0.04300  -0.00300
O205      0.12600   0.02500   0.08300   0.00800  -0.03000   0.00000
N208      0.04500   0.02300   0.07000   0.00200   0.00500  -0.00500
N209      0.05300   0.02900   0.05500   0.00100   0.01000   0.00200
O210      0.06700   0.01400   0.08000  -0.00300   0.00800   0.00100
O211      0.05800   0.02200   0.09100   0.00700   0.01300   0.00900
O212      0.09100   0.05800   0.08100  -0.00900   0.03600  -0.00500
O213      0.14600   0.08300   0.07300   0.00200  -0.00500   0.02700
C215      0.03700   0.03100   0.12000  -0.00200  -0.00000  -0.01100
C217      0.05600   0.05200   0.09900   0.01100  -0.01500  -0.02300
C219      0.07800   0.04700   0.08700   0.01300  -0.01300  -0.01000
C221      0.05100   0.03200   0.06500   0.01200  -0.00400  -0.01200
C222      0.04100   0.01800   0.07500   0.00500   0.00400  -0.00500
C223      0.08700   0.05000   0.05900   0.00300   0.01500   0.00500
C224      0.05800   0.04300   0.05200   0.00400  -0.00200   0.00000
C226      0.06200   0.03700   0.05900  -0.00900   0.00400  -0.00400
C228      0.05300   0.02900   0.06600  -0.00800   0.01100  -0.01400
C230      0.04400   0.02200   0.05700   0.00200   0.01700  -0.00200
C231      0.04100   0.02000   0.05000  -0.00100   0.00600  -0.00300
C232      0.05200   0.01900   0.05700  -0.00600   0.00800  -0.00300
P233      0.02690   0.03110   0.03400   0.00150  -0.00130   0.00000
P234      0.02690   0.03110   0.03400  -0.00150  -0.00130  -0.00000
loop_
_geom_bond_atom_site_label_1
_geom_bond_atom_site_label_2
_geom_bond_distance
_geom_bond_site_symmetry_2
_ccdc_geom_bond_type
Mo1    O8      2.440   .     S
Mo1    O9      1.958   .     S
Mo1    O10     1.835   1_565 S
Mo1    O11     1.956   .     S
Mo1    O12     1.662   .     S
Mo1    O13     1.848   1_565 S
Mo2    O14     1.962   1_545 S
Mo2    O15     1.667   .     S
Mo2    O16     1.937   .     S
Mo2    O17     1.812   .     S
Mo2    O124    2.486   .     S
Mo2    O127    1.836   .     S
Mo3    O10     1.963   1_556 S
Mo3    O18     1.941   .     S
Mo3    O19     1.853   1_545 S
Mo3    O20     1.632   .     S
Mo3    O16     1.837   .     S
Mo4    O7      2.415   .     S
Mo4    O14     1.830   .     S
Mo4    O21     1.649   .     S
Mo4    O24     1.848   .     S
Mo4    O129    1.932   .     S
Mo4    O141    1.981   .     S
Mo4    O124    2.532   1_565 S
Mo5    O7      2.438   .     S
Mo5    O22     1.645   .     S
Mo5    O26     1.855   1_556 S
Mo5    O9      1.835   1_556 S
Mo5    O19     1.938   .     S
Mo5    O24     1.954   .     S
Mo6    O17     1.986   .     S
Mo6    O23     1.667   .     S
Mo6    O25     1.819   1_556 S
Mo6    O123    2.446   1_556 S
Mo6    O142    1.938   .     S
Mo6    O18     1.871   .     S
O7     P233    1.595   1_566 S
O7     Mo122   2.446   1_556 S
O8     P233    1.503   1_565 S
O8     Mo118   2.486   .     S
O8     Mo120   2.532   1_565 S
O9     Mo5     1.835   1_554 S
O10    Mo3     1.963   1_554 S
O10    Mo1     1.835   1_545 S
O11    Mo118   1.836   .     S
O13    Mo1     1.848   1_545 S
O13    Mo120   1.932   .     S
O14    Mo2     1.962   1_565 S
O15    Cu27    2.620   .     S
O19    Mo3     1.853   1_565 S
O25    Mo6     1.819   1_554 S
O25    Mo120   1.981   .     S
O26    Mo5     1.855   1_554 S
O26    Mo122   1.938   .     S
Cu27   O28     2.320   .     S
Cu27   O31     1.981   .     S
Cu27   N34     2.008   .     S
Cu27   N35     1.980   .     S
Cu27   O94     1.951   .     S
O28    H29     0.850   .     S
O28    H30     0.848   .     S
O31    H32     0.850   .     S
O31    H33     0.850   .     S
N34    C41     1.298   .     S
N34    C48     1.348   .     S
N35    C50     1.352   .     S
N35    C57     1.355   .     S
O36    C58     1.256   .     S
O36    Cu85    1.951   .     S
O37    C58     1.234   .     S
O38    C49     1.235   .     S
O39    H40     0.820   .     S
O39    C49     1.253   .     S
C41    H42     0.930   .     S
C41    C43     1.429   .     S
C43    H44     0.930   1_655 S
C43    C45     1.371   .     S
H44    C43     0.930   1_455 S
C45    H46     0.931   .     S
C45    C47     1.342   .     S
C47    C48     1.435   .     S
C47    C49     1.446   .     S
C48    C57     1.486   .     S
C50    H51     0.930   .     S
C50    C52     1.344   .     S
C52    H53     0.931   .     S
C52    C54     1.361   .     S
C54    H55     0.931   .     S
C54    C56     1.378   .     S
C56    C58     1.491   .     S
C56    C57     1.412   .     S
Mo59   O66     2.440   .     S
Mo59   O67     1.958   .     S
Mo59   O68     1.835   .     S
Mo59   O69     1.956   .     S
Mo59   O70     1.662   .     S
Mo59   O71     1.848   .     S
Mo60   O72     1.962   .     S
Mo60   O73     1.667   .     S
Mo60   O74     1.937   .     S
Mo60   O75     1.812   .     S
Mo60   O182    2.486   1_655 S
Mo60   O185    1.836   1_655 S
Mo61   O68     1.963   .     S
Mo61   O76     1.941   .     S
Mo61   O77     1.853   .     S
Mo61   O78     1.632   .     S
Mo61   O74     1.837   .     S
Mo62   O65     2.415   .     S
Mo62   O72     1.830   .     S
Mo62   O79     1.649   .     S
Mo62   O82     1.848   .     S
Mo62   O187    1.932   1_655 S
Mo62   O199    1.981   1_655 S
Mo62   O182    2.532   1_655 S
Mo63   O65     2.438   .     S
Mo63   O80     1.645   .     S
Mo63   O84     1.855   .     S
Mo63   O67     1.835   .     S
Mo63   O77     1.938   .     S
Mo63   O82     1.954   .     S
Mo64   O75     1.986   .     S
Mo64   O81     1.667   .     S
Mo64   O83     1.819   .     S
Mo64   O181    2.446   1_655 S
Mo64   O200    1.938   1_655 S
Mo64   O76     1.871   .     S
O65    P234    1.595   1_655 S
O65    Mo180   2.446   1_655 S
O66    P234    1.503   1_655 S
O66    Mo176   2.486   1_655 S
O66    Mo178   2.532   1_655 S
O69    Mo176   1.836   1_655 S
O71    Mo178   1.932   1_655 S
O73    Cu85    2.620   .     S
O83    Mo178   1.981   1_655 S
O84    Mo180   1.938   1_655 S
Cu85   O86     2.320   .     S
Cu85   O89     1.981   .     S
Cu85   N92     2.008   .     S
Cu85   N93     1.980   .     S
O86    H87     0.850   .     S
O86    H88     0.848   .     S
O89    H90     0.850   .     S
O89    H91     0.850   .     S
N92    C99     1.298   .     S
N92    C106    1.348   .     S
N93    C108    1.352   .     S
N93    C115    1.355   .     S
O94    C116    1.256   1_545 S
O95    C116    1.234   .     S
O96    C107    1.235   .     S
O97    H98     0.820   .     S
O97    C107    1.253   .     S
C99    H100    0.930   .     S
C99    C101    1.429   .     S
C101   H102    0.930   .     S
C101   C103    1.371   .     S
C103   H104    0.931   .     S
C103   C105    1.342   .     S
C105   C106    1.435   .     S
C105   C107    1.446   .     S
C106   C115    1.486   .     S
C108   H109    0.930   .     S
C108   C110    1.344   .     S
C110   H111    0.931   .     S
C110   C112    1.361   .     S
C112   H113    0.931   .     S
C112   C114    1.378   .     S
C114   C116    1.491   .     S
C114   C115    1.412   .     S
C116   O94     1.256   1_565 S
Mo117  O124    2.440   .     S
Mo117  O125    1.958   .     S
Mo117  O126    1.835   1_545 S
Mo117  O127    1.956   .     S
Mo117  O128    1.662   .     S
Mo117  O129    1.848   1_545 S
Mo118  O130    1.962   1_565 S
Mo118  O131    1.667   .     S
Mo118  O132    1.937   .     S
Mo118  O133    1.812   .     S
Mo119  O126    1.963   1_554 S
Mo119  O134    1.941   .     S
Mo119  O135    1.853   1_565 S
Mo119  O136    1.632   .     S
Mo119  O132    1.837   .     S
Mo120  O123    2.415   .     S
Mo120  O130    1.830   .     S
Mo120  O137    1.649   .     S
Mo120  O140    1.848   .     S
Mo120  O8      2.532   1_545 S
Mo121  O123    2.438   .     S
Mo121  O138    1.645   .     S
Mo121  O142    1.855   1_554 S
Mo121  O125    1.835   1_554 S
Mo121  O135    1.938   .     S
Mo121  O140    1.954   .     S
Mo122  O133    1.986   .     S
Mo122  O139    1.667   .     S
Mo122  O141    1.819   1_554 S
Mo122  O7      2.446   1_554 S
Mo122  O134    1.871   .     S
O123   P233    1.595   .     S
O123   Mo6     2.446   1_554 S
O124   P233    1.503   1_556 S
O124   Mo4     2.532   1_545 S
O125   Mo121   1.835   1_556 S
O126   Mo119   1.963   1_556 S
O126   Mo117   1.835   1_565 S
O129   Mo117   1.848   1_565 S
O130   Mo118   1.962   1_545 S
O131   Cu143   2.620   .     S
O135   Mo119   1.853   1_545 S
O141   Mo122   1.819   1_556 S
O142   Mo121   1.855   1_556 S
Cu143  O144    2.320   .     S
Cu143  O147    1.981   .     S
Cu143  N150    2.008   .     S
Cu143  N151    1.980   .     S
Cu143  O210    1.951   .     S
O144   H145    0.850   .     S
O144   H146    0.848   .     S
O147   H148    0.850   .     S
O147   H149    0.850   .     S
N150   C157    1.298   .     S
N150   C164    1.348   .     S
N151   C166    1.352   .     S
N151   C173    1.355   .     S
O152   C174    1.256   .     S
O152   Cu201   1.951   .     S
O153   C174    1.234   .     S
O154   C165    1.235   .     S
O155   H156    0.820   .     S
O155   C165    1.253   .     S
C157   H158    0.930   .     S
C157   C159    1.429   .     S
C159   H160    0.930   1_455 S
C159   C161    1.371   .     S
H160   C159    0.930   1_655 S
C161   H162    0.931   .     S
C161   C163    1.342   .     S
C163   C164    1.435   .     S
C163   C165    1.446   .     S
C164   C173    1.486   .     S
C166   H167    0.930   .     S
C166   C168    1.344   .     S
C168   H169    0.931   .     S
C168   C170    1.361   .     S
C170   H171    0.931   .     S
C170   C172    1.378   .     S
C172   C174    1.491   .     S
C172   C173    1.412   .     S
Mo175  O182    2.440   .     S
Mo175  O183    1.958   .     S
Mo175  O184    1.835   .     S
Mo175  O185    1.956   .     S
Mo175  O186    1.662   .     S
Mo175  O187    1.848   .     S
Mo176  O188    1.962   .     S
Mo176  O189    1.667   .     S
Mo176  O190    1.937   .     S
Mo176  O191    1.812   .     S
Mo176  O66     2.486   1_455 S
Mo176  O69     1.836   1_455 S
Mo177  O184    1.963   .     S
Mo177  O192    1.941   .     S
Mo177  O193    1.853   .     S
Mo177  O194    1.632   .     S
Mo177  O190    1.837   .     S
Mo178  O181    2.415   .     S
Mo178  O188    1.830   .     S
Mo178  O195    1.649   .     S
Mo178  O198    1.848   .     S
Mo178  O71     1.932   1_455 S
Mo178  O83     1.981   1_455 S
Mo178  O66     2.532   1_455 S
Mo179  O181    2.438   .     S
Mo179  O196    1.645   .     S
Mo179  O200    1.855   .     S
Mo179  O183    1.835   .     S
Mo179  O193    1.938   .     S
Mo179  O198    1.954   .     S
Mo180  O191    1.986   .     S
Mo180  O197    1.667   .     S
Mo180  O199    1.819   .     S
Mo180  O65     2.446   1_455 S
Mo180  O84     1.938   1_455 S
Mo180  O192    1.871   .     S
O181   P234    1.595   .     S
O181   Mo64    2.446   1_455 S
O182   P234    1.503   .     S
O182   Mo60    2.486   1_455 S
O182   Mo62    2.532   1_455 S
O185   Mo60    1.836   1_455 S
O187   Mo62    1.932   1_455 S
O189   Cu201   2.620   .     S
O199   Mo62    1.981   1_455 S
O200   Mo64    1.938   1_455 S
Cu201  O202    2.320   .     S
Cu201  O205    1.981   .     S
Cu201  N208    2.008   .     S
Cu201  N209    1.980   .     S
O202   H203    0.850   .     S
O202   H204    0.848   .     S
O205   H206    0.850   .     S
O205   H207    0.850   .     S
N208   C215    1.298   .     S
N208   C222    1.348   .     S
N209   C224    1.352   .     S
N209   C231    1.355   .     S
O210   C232    1.256   1_565 S
O211   C232    1.234   .     S
O212   C223    1.235   .     S
O213   H214    0.820   .     S
O213   C223    1.253   .     S
C215   H216    0.930   .     S
C215   C217    1.429   .     S
C217   H218    0.930   .     S
C217   C219    1.371   .     S
C219   H220    0.931   .     S
C219   C221    1.342   .     S
C221   C222    1.435   .     S
C221   C223    1.446   .     S
C222   C231    1.486   .     S
C224   H225    0.930   .     S
C224   C226    1.344   .     S
C226   H227    0.931   .     S
C226   C228    1.361   .     S
C228   H229    0.931   .     S
C228   C230    1.378   .     S
C230   C232    1.491   .     S
C230   C231    1.412   .     S
C232   O210    1.256   1_545 S
P233   O7      1.595   1_544 S
P233   O8      1.503   1_545 S
P233   O124    1.503   1_554 S
P234   O65     1.595   1_455 S
P234   O66     1.503   1_455 S
