data_GEYMOO_FSR
_audit_creation_date              2024-06-11
_audit_creation_method            'Materials Studio'
_symmetry_space_group_name_H-M    'P1'
_symmetry_Int_Tables_number       1
_symmetry_cell_setting            triclinic
loop_
_symmetry_equiv_pos_as_xyz
  x,y,z
_cell_length_a                    10.9100
_cell_length_b                    16.1200
_cell_length_c                    22.6210
_cell_angle_alpha                 90.0000
_cell_angle_beta                  94.6940
_cell_angle_gamma                 90.0000
loop_
_atom_site_label
_atom_site_type_symbol
_atom_site_fract_x
_atom_site_fract_y
_atom_site_fract_z
_atom_site_U_iso_or_equiv
_atom_site_adp_type
_atom_site_occupancy
W1     W     0.73773   0.02285   0.11592   0.00000  Uiso   1.00
W2     W     0.43474   0.09336   0.13629   0.00000  Uiso   1.00
W3     W     0.19637   0.06657   0.02201   0.00000  Uiso   1.00
W4     W     0.49755   0.87720   0.13023   0.00000  Uiso   1.00
W5     W     0.26347   0.85035   0.01320   0.00000  Uiso   1.00
W6     W     0.56844   0.78458   0.99440   0.00000  Uiso   1.00
O7     O     0.46420   0.91170   0.02630   0.00000  Uiso   1.00
O8     O     0.41740   0.06140   0.03080   0.00000  Uiso   1.00
O9     O     0.63030   0.01290   0.01610   0.00000  Uiso   1.00
O10    O     0.60840   0.08640   0.14480   0.00000  Uiso   1.00
O11    O     0.84720   0.03390   0.17060   0.00000  Uiso   1.00
O12    O     0.65420   0.92850   0.14000   0.00000  Uiso   1.00
O13    O     0.23680   0.88410   0.93420   0.00000  Uiso   1.00
O14    O     0.18790   0.04150   0.94000   0.00000  Uiso   1.00
O15    O     0.43430   0.97820   0.15390   0.00000  Uiso   1.00
O16    O     0.40580   0.13780   0.20130   0.00000  Uiso   1.00
O17    O     0.55180   0.81360   0.91230   0.00000  Uiso   1.00
O18    O     0.27550   0.07850   0.09980   0.00000  Uiso   1.00
O19    O     0.05310   0.09500   0.03190   0.00000  Uiso   1.00
O20    O     0.19180   0.95030   0.03520   0.00000  Uiso   1.00
O21    O     0.72610   0.83180   0.99650   0.00000  Uiso   1.00
O22    O     0.49770   0.81940   0.19180   0.00000  Uiso   1.00
O23    O     0.34430   0.85050   0.09130   0.00000  Uiso   1.00
O24    O     0.57030   0.80610   0.07470   0.00000  Uiso   1.00
O25    O     0.15270   0.78180   0.01860   0.00000  Uiso   1.00
O26    O     0.39660   0.78430   0.99010   0.00000  Uiso   1.00
O27    O     0.59890   0.68310   0.99230   0.00000  Uiso   1.00
Cu28   Cu    0.27303   0.15007   0.28911   0.00000  Uiso   1.00
O29    O     0.15370   0.15660   0.36780   0.00000  Uiso   1.00
H30    H     0.18760   0.15320   0.40290   0.00000  Uiso   1.00
H31    H     0.07840   0.14290   0.36270   0.00000  Uiso   1.00
O32    O     0.41220   0.10020   0.33830   0.00000  Uiso   1.00
H33    H     0.41430   0.04960   0.32780   0.00000  Uiso   1.00
H34    H     0.40200   0.09960   0.37510   0.00000  Uiso   1.00
N35    N     0.16060   0.21040   0.22940   0.00000  Uiso   1.00
N36    N     0.34050   0.26480   0.29890   0.00000  Uiso   1.00
O37    O     0.36060   0.38910   0.14540   0.00000  Uiso   1.00
O38    O     0.19840   0.41730   0.08470   0.00000  Uiso   1.00
H39    H     0.24480   0.45300   0.07360   0.00000  Uiso   1.00
O40    O     0.29360   0.54240   0.23640   0.00000  Uiso   1.00
O41    O     0.13640   0.45940   0.21390   0.00000  Uiso   1.00
C42    C     0.07070   0.17210   0.19520   0.00000  Uiso   1.00
H43    H     0.03550   0.12370   0.20850   0.00000  Uiso   1.00
C44    C     0.02990   0.20520   0.13950   0.00000  Uiso   1.00
H45    H     0.96490   0.18080   0.11670   0.00000  Uiso   1.00
C46    C     0.08500   0.27110   0.12020   0.00000  Uiso   1.00
H47    H     0.05980   0.29200   0.08280   0.00000  Uiso   1.00
C48    C     0.18170   0.31120   0.15460   0.00000  Uiso   1.00
C49    C     0.20900   0.28180   0.21210   0.00000  Uiso   1.00
C50    C     0.25120   0.37800   0.12710   0.00000  Uiso   1.00
C51    C     0.42010   0.28860   0.34540   0.00000  Uiso   1.00
H52    H     0.45800   0.24880   0.37030   0.00000  Uiso   1.00
C53    C     0.44390   0.36870   0.35530   0.00000  Uiso   1.00
H54    H     0.49910   0.38480   0.38670   0.00000  Uiso   1.00
C55    C     0.38700   0.42650   0.31910   0.00000  Uiso   1.00
H56    H     0.40260   0.48220   0.32710   0.00000  Uiso   1.00
C57    C     0.30640   0.40590   0.27090   0.00000  Uiso   1.00
C58    C     0.29090   0.32040   0.26020   0.00000  Uiso   1.00
C59    C     0.24010   0.47400   0.23580   0.00000  Uiso   1.00
W60    W     0.76227   0.52285   0.38408   0.00000  Uiso   1.00
W61    W     0.06526   0.59336   0.36371   0.00000  Uiso   1.00
W62    W     0.30363   0.56657   0.47799   0.00000  Uiso   1.00
W63    W     0.00245   0.37720   0.36977   0.00000  Uiso   1.00
W64    W     0.23653   0.35035   0.48680   0.00000  Uiso   1.00
W65    W     0.93156   0.28458   0.50560   0.00000  Uiso   1.00
O66    O     0.03580   0.41170   0.47370   0.00000  Uiso   1.00
O67    O     0.08260   0.56140   0.46920   0.00000  Uiso   1.00
O68    O     0.86970   0.51290   0.48390   0.00000  Uiso   1.00
O69    O     0.89160   0.58640   0.35520   0.00000  Uiso   1.00
O70    O     0.65280   0.53390   0.32940   0.00000  Uiso   1.00
O71    O     0.84580   0.42850   0.36000   0.00000  Uiso   1.00
O72    O     0.26320   0.38410   0.56580   0.00000  Uiso   1.00
O73    O     0.31210   0.54150   0.56000   0.00000  Uiso   1.00
O74    O     0.06570   0.47820   0.34610   0.00000  Uiso   1.00
O75    O     0.09420   0.63780   0.29870   0.00000  Uiso   1.00
O76    O     0.94820   0.31360   0.58770   0.00000  Uiso   1.00
O77    O     0.22450   0.57850   0.40020   0.00000  Uiso   1.00
O78    O     0.44690   0.59500   0.46810   0.00000  Uiso   1.00
O79    O     0.30820   0.45030   0.46480   0.00000  Uiso   1.00
O80    O     0.77390   0.33180   0.50350   0.00000  Uiso   1.00
O81    O     0.00230   0.31940   0.30820   0.00000  Uiso   1.00
O82    O     0.15570   0.35050   0.40870   0.00000  Uiso   1.00
O83    O     0.92970   0.30610   0.42530   0.00000  Uiso   1.00
O84    O     0.34730   0.28180   0.48140   0.00000  Uiso   1.00
O85    O     0.10340   0.28430   0.50990   0.00000  Uiso   1.00
O86    O     0.90110   0.18310   0.50770   0.00000  Uiso   1.00
Cu87   Cu    0.22697   0.65007   0.21089   0.00000  Uiso   1.00
O88    O     0.34630   0.65660   0.13220   0.00000  Uiso   1.00
H89    H     0.31240   0.65320   0.09710   0.00000  Uiso   1.00
H90    H     0.42160   0.64290   0.13730   0.00000  Uiso   1.00
O91    O     0.08780   0.60020   0.16170   0.00000  Uiso   1.00
H92    H     0.08570   0.54960   0.17220   0.00000  Uiso   1.00
H93    H     0.09800   0.59960   0.12490   0.00000  Uiso   1.00
N94    N     0.33940   0.71040   0.27060   0.00000  Uiso   1.00
N95    N     0.15950   0.76480   0.20110   0.00000  Uiso   1.00
O96    O     0.13940   0.88910   0.35460   0.00000  Uiso   1.00
O97    O     0.30160   0.91730   0.41530   0.00000  Uiso   1.00
H98    H     0.25520   0.95300   0.42640   0.00000  Uiso   1.00
O99    O     0.20640   0.04240   0.26360   0.00000  Uiso   1.00
O100   O     0.36360   0.95940   0.28610   0.00000  Uiso   1.00
C101   C     0.42930   0.67210   0.30480   0.00000  Uiso   1.00
H102   H     0.46450   0.62370   0.29150   0.00000  Uiso   1.00
C103   C     0.47010   0.70520   0.36050   0.00000  Uiso   1.00
H104   H     0.53510   0.68080   0.38330   0.00000  Uiso   1.00
C105   C     0.41500   0.77110   0.37980   0.00000  Uiso   1.00
H106   H     0.44020   0.79200   0.41720   0.00000  Uiso   1.00
C107   C     0.31830   0.81120   0.34540   0.00000  Uiso   1.00
C108   C     0.29100   0.78180   0.28790   0.00000  Uiso   1.00
C109   C     0.24880   0.87800   0.37290   0.00000  Uiso   1.00
C110   C     0.07990   0.78860   0.15460   0.00000  Uiso   1.00
H111   H     0.04200   0.74880   0.12970   0.00000  Uiso   1.00
C112   C     0.05610   0.86870   0.14470   0.00000  Uiso   1.00
H113   H     0.00090   0.88480   0.11330   0.00000  Uiso   1.00
C114   C     0.11300   0.92650   0.18090   0.00000  Uiso   1.00
H115   H     0.09740   0.98220   0.17290   0.00000  Uiso   1.00
C116   C     0.19360   0.90590   0.22910   0.00000  Uiso   1.00
C117   C     0.20910   0.82040   0.23980   0.00000  Uiso   1.00
C118   C     0.25990   0.97400   0.26420   0.00000  Uiso   1.00
W119   W     0.26227   0.97715   0.88408   0.00000  Uiso   1.00
W120   W     0.56526   0.90664   0.86371   0.00000  Uiso   1.00
W121   W     0.80363   0.93343   0.97799   0.00000  Uiso   1.00
W122   W     0.50245   0.12280   0.86977   0.00000  Uiso   1.00
W123   W     0.73653   0.14965   0.98680   0.00000  Uiso   1.00
W124   W     0.43156   0.21542   0.00560   0.00000  Uiso   1.00
O125   O     0.53580   0.08830   0.97370   0.00000  Uiso   1.00
O126   O     0.58260   0.93860   0.96920   0.00000  Uiso   1.00
O127   O     0.36970   0.98710   0.98390   0.00000  Uiso   1.00
O128   O     0.39160   0.91360   0.85520   0.00000  Uiso   1.00
O129   O     0.15280   0.96610   0.82940   0.00000  Uiso   1.00
O130   O     0.34580   0.07150   0.86000   0.00000  Uiso   1.00
O131   O     0.76320   0.11590   0.06580   0.00000  Uiso   1.00
O132   O     0.81210   0.95850   0.06000   0.00000  Uiso   1.00
O133   O     0.56570   0.02180   0.84610   0.00000  Uiso   1.00
O134   O     0.59420   0.86220   0.79870   0.00000  Uiso   1.00
O135   O     0.44820   0.18640   0.08770   0.00000  Uiso   1.00
O136   O     0.72450   0.92150   0.90020   0.00000  Uiso   1.00
O137   O     0.94690   0.90500   0.96810   0.00000  Uiso   1.00
O138   O     0.80820   0.04970   0.96480   0.00000  Uiso   1.00
O139   O     0.27390   0.16820   0.00350   0.00000  Uiso   1.00
O140   O     0.50230   0.18060   0.80820   0.00000  Uiso   1.00
O141   O     0.65570   0.14950   0.90870   0.00000  Uiso   1.00
O142   O     0.42970   0.19390   0.92530   0.00000  Uiso   1.00
O143   O     0.84730   0.21820   0.98140   0.00000  Uiso   1.00
O144   O     0.60340   0.21570   0.00990   0.00000  Uiso   1.00
O145   O     0.40110   0.31690   0.00770   0.00000  Uiso   1.00
Cu146  Cu    0.72697   0.84993   0.71089   0.00000  Uiso   1.00
O147   O     0.84630   0.84340   0.63220   0.00000  Uiso   1.00
H148   H     0.81240   0.84680   0.59710   0.00000  Uiso   1.00
H149   H     0.92160   0.85710   0.63730   0.00000  Uiso   1.00
O150   O     0.58780   0.89980   0.66170   0.00000  Uiso   1.00
H151   H     0.58570   0.95040   0.67220   0.00000  Uiso   1.00
H152   H     0.59800   0.90040   0.62490   0.00000  Uiso   1.00
N153   N     0.83940   0.78960   0.77060   0.00000  Uiso   1.00
N154   N     0.65950   0.73520   0.70110   0.00000  Uiso   1.00
O155   O     0.63940   0.61090   0.85460   0.00000  Uiso   1.00
O156   O     0.80160   0.58270   0.91530   0.00000  Uiso   1.00
H157   H     0.75520   0.54700   0.92640   0.00000  Uiso   1.00
O158   O     0.70640   0.45760   0.76360   0.00000  Uiso   1.00
O159   O     0.86360   0.54060   0.78610   0.00000  Uiso   1.00
C160   C     0.92930   0.82790   0.80480   0.00000  Uiso   1.00
H161   H     0.96450   0.87630   0.79150   0.00000  Uiso   1.00
C162   C     0.97010   0.79480   0.86050   0.00000  Uiso   1.00
H163   H     0.03510   0.81920   0.88330   0.00000  Uiso   1.00
C164   C     0.91500   0.72890   0.87980   0.00000  Uiso   1.00
H165   H     0.94020   0.70800   0.91720   0.00000  Uiso   1.00
C166   C     0.81830   0.68880   0.84540   0.00000  Uiso   1.00
C167   C     0.79100   0.71820   0.78790   0.00000  Uiso   1.00
C168   C     0.74880   0.62200   0.87290   0.00000  Uiso   1.00
C169   C     0.57990   0.71140   0.65460   0.00000  Uiso   1.00
H170   H     0.54200   0.75120   0.62970   0.00000  Uiso   1.00
C171   C     0.55610   0.63130   0.64470   0.00000  Uiso   1.00
H172   H     0.50090   0.61520   0.61330   0.00000  Uiso   1.00
C173   C     0.61300   0.57350   0.68090   0.00000  Uiso   1.00
H174   H     0.59740   0.51780   0.67290   0.00000  Uiso   1.00
C175   C     0.69360   0.59410   0.72910   0.00000  Uiso   1.00
C176   C     0.70910   0.67960   0.73980   0.00000  Uiso   1.00
C177   C     0.75990   0.52600   0.76420   0.00000  Uiso   1.00
W178   W     0.23773   0.47715   0.61592   0.00000  Uiso   1.00
W179   W     0.93474   0.40664   0.63629   0.00000  Uiso   1.00
W180   W     0.69637   0.43343   0.52201   0.00000  Uiso   1.00
W181   W     0.99755   0.62280   0.63023   0.00000  Uiso   1.00
W182   W     0.76347   0.64965   0.51320   0.00000  Uiso   1.00
W183   W     0.06844   0.71542   0.49440   0.00000  Uiso   1.00
O184   O     0.96420   0.58830   0.52630   0.00000  Uiso   1.00
O185   O     0.91740   0.43860   0.53080   0.00000  Uiso   1.00
O186   O     0.13030   0.48710   0.51610   0.00000  Uiso   1.00
O187   O     0.10840   0.41360   0.64480   0.00000  Uiso   1.00
O188   O     0.34720   0.46610   0.67060   0.00000  Uiso   1.00
O189   O     0.15420   0.57150   0.64000   0.00000  Uiso   1.00
O190   O     0.73680   0.61590   0.43420   0.00000  Uiso   1.00
O191   O     0.68790   0.45850   0.44000   0.00000  Uiso   1.00
O192   O     0.93430   0.52180   0.65390   0.00000  Uiso   1.00
O193   O     0.90580   0.36220   0.70130   0.00000  Uiso   1.00
O194   O     0.05180   0.68640   0.41230   0.00000  Uiso   1.00
O195   O     0.77550   0.42150   0.59980   0.00000  Uiso   1.00
O196   O     0.55310   0.40500   0.53190   0.00000  Uiso   1.00
O197   O     0.69180   0.54970   0.53520   0.00000  Uiso   1.00
O198   O     0.22610   0.66820   0.49650   0.00000  Uiso   1.00
O199   O     0.99770   0.68060   0.69180   0.00000  Uiso   1.00
O200   O     0.84430   0.64950   0.59130   0.00000  Uiso   1.00
O201   O     0.07030   0.69390   0.57470   0.00000  Uiso   1.00
O202   O     0.65270   0.71820   0.51860   0.00000  Uiso   1.00
O203   O     0.89660   0.71570   0.49010   0.00000  Uiso   1.00
O204   O     0.09890   0.81690   0.49230   0.00000  Uiso   1.00
Cu205  Cu    0.77303   0.34993   0.78911   0.00000  Uiso   1.00
O206   O     0.65370   0.34340   0.86780   0.00000  Uiso   1.00
H207   H     0.68760   0.34680   0.90290   0.00000  Uiso   1.00
H208   H     0.57840   0.35710   0.86270   0.00000  Uiso   1.00
O209   O     0.91220   0.39980   0.83830   0.00000  Uiso   1.00
H210   H     0.91430   0.45040   0.82780   0.00000  Uiso   1.00
H211   H     0.90200   0.40040   0.87510   0.00000  Uiso   1.00
N212   N     0.66060   0.28960   0.72940   0.00000  Uiso   1.00
N213   N     0.84050   0.23520   0.79890   0.00000  Uiso   1.00
O214   O     0.86060   0.11090   0.64540   0.00000  Uiso   1.00
O215   O     0.69840   0.08270   0.58470   0.00000  Uiso   1.00
H216   H     0.74480   0.04700   0.57360   0.00000  Uiso   1.00
O217   O     0.79360   0.95760   0.73640   0.00000  Uiso   1.00
O218   O     0.63640   0.04060   0.71390   0.00000  Uiso   1.00
C219   C     0.57070   0.32790   0.69520   0.00000  Uiso   1.00
H220   H     0.53550   0.37630   0.70850   0.00000  Uiso   1.00
C221   C     0.52990   0.29480   0.63950   0.00000  Uiso   1.00
H222   H     0.46490   0.31920   0.61670   0.00000  Uiso   1.00
C223   C     0.58500   0.22890   0.62020   0.00000  Uiso   1.00
H224   H     0.55980   0.20800   0.58280   0.00000  Uiso   1.00
C225   C     0.68170   0.18880   0.65460   0.00000  Uiso   1.00
C226   C     0.70900   0.21820   0.71210   0.00000  Uiso   1.00
C227   C     0.75120   0.12200   0.62710   0.00000  Uiso   1.00
C228   C     0.92010   0.21140   0.84540   0.00000  Uiso   1.00
H229   H     0.95800   0.25120   0.87030   0.00000  Uiso   1.00
C230   C     0.94390   0.13130   0.85530   0.00000  Uiso   1.00
H231   H     0.99910   0.11520   0.88670   0.00000  Uiso   1.00
C232   C     0.88700   0.07350   0.81910   0.00000  Uiso   1.00
H233   H     0.90260   0.01780   0.82710   0.00000  Uiso   1.00
C234   C     0.80640   0.09410   0.77090   0.00000  Uiso   1.00
C235   C     0.79090   0.17960   0.76020   0.00000  Uiso   1.00
C236   C     0.74010   0.02600   0.73580   0.00000  Uiso   1.00
P237   P     0.50000   0.00000   0.00000   0.00000  Uiso   1.00
P238   P     0.00000   0.50000   0.50000   0.00000  Uiso   1.00
loop_
_geom_bond_atom_site_label_1
_geom_bond_atom_site_label_2
_geom_bond_distance
_geom_bond_site_symmetry_2
_ccdc_geom_bond_type
W1     O9      2.463   .     S
W1     O10     1.902   .     S
W1     O11     1.657   .     S
W1     O12     1.877   1_545 S
W1     O131    1.914   .     S
W1     O132    1.871   1_545 S
W2     O8      2.433   .     S
W2     O15     1.899   1_545 S
W2     O16     1.689   .     S
W2     O18     1.877   .     S
W2     O135    1.872   .     S
W2     O10     1.892   .     S
W3     O8      2.405   .     S
W3     O14     1.894   1_554 S
W3     O19     1.661   .     S
W3     O20     1.899   1_545 S
W3     O127    2.495   1_544 S
W3     O139    1.906   .     S
W3     O18     1.905   .     S
W4     O7      2.414   .     S
W4     O22     1.676   .     S
W4     O23     1.875   .     S
W4     O24     1.920   .     S
W4     O12     1.895   .     S
W4     O15     1.864   .     S
W5     O7      2.399   .     S
W5     O13     1.868   1_554 S
W5     O25     1.649   .     S
W5     O26     1.908   1_554 S
W5     O20     1.876   .     S
W5     O23     1.909   .     S
W6     O7      2.479   1_556 S
W6     O17     1.909   .     S
W6     O21     1.878   .     S
W6     O27     1.671   .     S
W6     O24     1.848   1_556 S
W6     O26     1.869   .     S
O7     W6      2.479   1_554 S
O7     P237    1.603   1_565 S
O8     P237    1.543   .     S
O9     P237    1.453   .     S
O9     W121    2.495   1_544 S
O12    W1      1.877   1_565 S
O13    W5      1.868   1_556 S
O13    W119    1.914   .     S
O14    W3      1.894   1_556 S
O14    W119    1.871   1_545 S
O15    W2      1.899   1_565 S
O16    Cu28    2.560   .     S
O17    W120    1.872   .     S
O20    W3      1.899   1_565 S
O21    W121    1.906   .     S
O24    W6      1.848   1_554 S
O26    W5      1.908   1_556 S
Cu28   O29     2.292   .     S
Cu28   O32     1.978   .     S
Cu28   N35     2.001   .     S
Cu28   N36     1.996   .     S
Cu28   O99     1.951   .     S
O29    H30     0.850   .     S
O29    H31     0.849   .     S
O32    H33     0.850   .     S
O32    H34     0.849   .     S
N35    C42     1.348   .     S
N35    C49     1.338   .     S
N36    C51     1.363   .     S
N36    C58     1.336   .     S
O37    C50     1.244   .     S
O38    H39     0.819   .     S
O38    C50     1.250   .     S
O40    C59     1.247   .     S
O40    Cu87    1.951   .     S
O41    C59     1.220   .     S
C42    H43     0.930   .     S
C42    C44     1.407   .     S
C44    H45     0.929   1_455 S
C44    C46     1.313   .     S
H45    C44     0.929   1_655 S
C46    H47     0.931   .     S
C46    C48     1.415   .     S
C48    C49     1.393   .     S
C48    C50     1.483   .     S
C49    C58     1.487   .     S
C51    H52     0.928   .     S
C51    C53     1.332   .     S
C53    H54     0.930   .     S
C53    C55     1.357   .     S
C55    H56     0.929   .     S
C55    C57     1.384   .     S
C57    C59     1.505   .     S
C57    C58     1.407   .     S
W60    O68     2.463   .     S
W60    O69     1.902   .     S
W60    O70     1.657   .     S
W60    O71     1.877   .     S
W60    O190    1.914   .     S
W60    O191    1.871   .     S
W61    O67     2.433   .     S
W61    O74     1.899   .     S
W61    O75     1.689   .     S
W61    O77     1.877   .     S
W61    O194    1.872   .     S
W61    O69     1.892   1_455 S
W62    O67     2.405   .     S
W62    O73     1.894   .     S
W62    O78     1.661   .     S
W62    O79     1.899   .     S
W62    O186    2.495   .     S
W62    O198    1.906   .     S
W62    O77     1.905   .     S
W63    O66     2.414   .     S
W63    O81     1.676   .     S
W63    O82     1.875   .     S
W63    O83     1.920   1_455 S
W63    O71     1.895   1_455 S
W63    O74     1.864   .     S
W64    O66     2.399   .     S
W64    O72     1.868   .     S
W64    O84     1.649   .     S
W64    O85     1.908   .     S
W64    O79     1.876   .     S
W64    O82     1.909   .     S
W65    O66     2.479   1_655 S
W65    O76     1.909   .     S
W65    O80     1.878   .     S
W65    O86     1.671   .     S
W65    O83     1.848   .     S
W65    O85     1.869   1_655 S
O66    W65     2.479   1_455 S
O66    P238    1.603   .     S
O67    P238    1.543   .     S
O68    P238    1.453   1_655 S
O68    W180    2.495   .     S
O69    W61     1.892   1_655 S
O71    W63     1.895   1_655 S
O72    W178    1.914   .     S
O73    W178    1.871   .     S
O75    Cu87    2.560   .     S
O76    W179    1.872   .     S
O80    W180    1.906   .     S
O83    W63     1.920   1_655 S
O85    W65     1.869   1_455 S
Cu87   O88     2.292   .     S
Cu87   O91     1.978   .     S
Cu87   N94     2.001   .     S
Cu87   N95     1.996   .     S
O88    H89     0.850   .     S
O88    H90     0.849   .     S
O91    H92     0.850   .     S
O91    H93     0.849   .     S
N94    C101    1.348   .     S
N94    C108    1.338   .     S
N95    C110    1.363   .     S
N95    C117    1.336   .     S
O96    C109    1.244   .     S
O97    H98     0.819   .     S
O97    C109    1.250   .     S
O99    C118    1.247   1_545 S
O100   C118    1.220   .     S
C101   H102    0.930   .     S
C101   C103    1.407   .     S
C103   H104    0.929   .     S
C103   C105    1.313   .     S
C105   H106    0.931   .     S
C105   C107    1.415   .     S
C107   C108    1.393   .     S
C107   C109    1.483   .     S
C108   C117    1.487   .     S
C110   H111    0.928   .     S
C110   C112    1.332   .     S
C112   H113    0.930   .     S
C112   C114    1.357   .     S
C114   H115    0.929   .     S
C114   C116    1.384   .     S
C116   C118    1.505   .     S
C116   C117    1.407   .     S
C118   O99     1.247   1_565 S
W119   O127    2.463   .     S
W119   O128    1.902   .     S
W119   O129    1.657   .     S
W119   O130    1.877   1_565 S
W119   O14     1.871   1_565 S
W120   O126    2.433   .     S
W120   O133    1.899   1_565 S
W120   O134    1.689   .     S
W120   O136    1.877   .     S
W120   O128    1.892   .     S
W121   O126    2.405   .     S
W121   O132    1.894   1_556 S
W121   O137    1.661   .     S
W121   O138    1.899   1_565 S
W121   O9      2.495   1_566 S
W121   O136    1.905   .     S
W122   O125    2.414   .     S
W122   O140    1.676   .     S
W122   O141    1.875   .     S
W122   O142    1.920   .     S
W122   O130    1.895   .     S
W122   O133    1.864   .     S
W123   O125    2.399   .     S
W123   O131    1.868   1_556 S
W123   O143    1.649   .     S
W123   O144    1.908   1_556 S
W123   O138    1.876   .     S
W123   O141    1.909   .     S
W124   O125    2.479   1_554 S
W124   O135    1.909   .     S
W124   O139    1.878   .     S
W124   O145    1.671   .     S
W124   O142    1.848   1_554 S
W124   O144    1.869   .     S
O125   W124    2.479   1_556 S
O125   P237    1.603   1_556 S
O126   P237    1.543   1_566 S
O127   P237    1.453   1_566 S
O127   W3      2.495   1_566 S
O130   W119    1.877   1_545 S
O131   W123    1.868   1_554 S
O132   W121    1.894   1_554 S
O132   W1      1.871   1_565 S
O133   W120    1.899   1_545 S
O134   Cu146   2.560   .     S
O138   W121    1.899   1_545 S
O142   W124    1.848   1_556 S
O144   W123    1.908   1_554 S
Cu146  O147    2.292   .     S
Cu146  O150    1.978   .     S
Cu146  N153    2.001   .     S
Cu146  N154    1.996   .     S
Cu146  O217    1.951   .     S
O147   H148    0.850   .     S
O147   H149    0.849   .     S
O150   H151    0.850   .     S
O150   H152    0.849   .     S
N153   C160    1.348   .     S
N153   C167    1.338   .     S
N154   C169    1.363   .     S
N154   C176    1.336   .     S
O155   C168    1.244   .     S
O156   H157    0.819   .     S
O156   C168    1.250   .     S
O158   C177    1.247   .     S
O158   Cu205   1.951   .     S
O159   C177    1.220   .     S
C160   H161    0.930   .     S
C160   C162    1.407   .     S
C162   H163    0.929   1_655 S
C162   C164    1.313   .     S
H163   C162    0.929   1_455 S
C164   H165    0.931   .     S
C164   C166    1.415   .     S
C166   C167    1.393   .     S
C166   C168    1.483   .     S
C167   C176    1.487   .     S
C169   H170    0.928   .     S
C169   C171    1.332   .     S
C171   H172    0.930   .     S
C171   C173    1.357   .     S
C173   H174    0.929   .     S
C173   C175    1.384   .     S
C175   C177    1.505   .     S
C175   C176    1.407   .     S
W178   O186    2.463   .     S
W178   O187    1.902   .     S
W178   O188    1.657   .     S
W178   O189    1.877   .     S
W179   O185    2.433   .     S
W179   O192    1.899   .     S
W179   O193    1.689   .     S
W179   O195    1.877   .     S
W179   O187    1.892   1_655 S
W180   O185    2.405   .     S
W180   O191    1.894   .     S
W180   O196    1.661   .     S
W180   O197    1.899   .     S
W180   O195    1.905   .     S
W181   O184    2.414   .     S
W181   O199    1.676   .     S
W181   O200    1.875   .     S
W181   O201    1.920   1_655 S
W181   O189    1.895   1_655 S
W181   O192    1.864   .     S
W182   O184    2.399   .     S
W182   O190    1.868   .     S
W182   O202    1.649   .     S
W182   O203    1.908   .     S
W182   O197    1.876   .     S
W182   O200    1.909   .     S
W183   O184    2.479   1_455 S
W183   O194    1.909   .     S
W183   O198    1.878   .     S
W183   O204    1.671   .     S
W183   O201    1.848   .     S
W183   O203    1.869   1_455 S
O184   W183    2.479   1_655 S
O184   P238    1.603   1_655 S
O185   P238    1.543   1_655 S
O186   P238    1.453   .     S
O187   W179    1.892   1_455 S
O189   W181    1.895   1_455 S
O193   Cu205   2.560   .     S
O201   W181    1.920   1_455 S
O203   W183    1.869   1_655 S
Cu205  O206    2.292   .     S
Cu205  O209    1.978   .     S
Cu205  N212    2.001   .     S
Cu205  N213    1.996   .     S
O206   H207    0.850   .     S
O206   H208    0.849   .     S
O209   H210    0.850   .     S
O209   H211    0.849   .     S
N212   C219    1.348   .     S
N212   C226    1.338   .     S
N213   C228    1.363   .     S
N213   C235    1.336   .     S
O214   C227    1.244   .     S
O215   H216    0.819   .     S
O215   C227    1.250   .     S
O217   C236    1.247   1_565 S
O218   C236    1.220   .     S
C219   H220    0.930   .     S
C219   C221    1.407   .     S
C221   H222    0.929   .     S
C221   C223    1.313   .     S
C223   H224    0.931   .     S
C223   C225    1.415   .     S
C225   C226    1.393   .     S
C225   C227    1.483   .     S
C226   C235    1.487   .     S
C228   H229    0.928   .     S
C228   C230    1.332   .     S
C230   H231    0.930   .     S
C230   C232    1.357   .     S
C232   H233    0.929   .     S
C232   C234    1.384   .     S
C234   C236    1.505   .     S
C234   C235    1.407   .     S
C236   O217    1.247   1_545 S
P237   O7      1.603   1_545 S
P237   O125    1.603   1_554 S
P237   O126    1.543   1_544 S
P237   O127    1.453   1_544 S
P238   O184    1.603   1_455 S
P238   O185    1.543   1_455 S
P238   O68     1.453   1_455 S
