data_GOFTON_FSR
_audit_creation_date              2024-06-11
_audit_creation_method            'Materials Studio'
_symmetry_space_group_name_H-M    'P1'
_symmetry_Int_Tables_number       1
_symmetry_cell_setting            triclinic
loop_
_symmetry_equiv_pos_as_xyz
  x,y,z
_cell_length_a                    9.4135
_cell_length_b                    10.5485
_cell_length_c                    17.0809
_cell_angle_alpha                 90.0000
_cell_angle_beta                  101.2730
_cell_angle_gamma                 90.0000
loop_
_atom_site_label
_atom_site_type_symbol
_atom_site_fract_x
_atom_site_fract_y
_atom_site_fract_z
_atom_site_U_iso_or_equiv
_atom_site_adp_type
_atom_site_occupancy
Ho1    Ho    0.79757   0.44018   0.32903   0.01151  Uani   1.00
C2     C     0.45700   0.45800   0.12063   0.01392  Uani   1.00
C3     C     0.43340   0.35740   0.06751   0.01371  Uani   1.00
H4     H     0.49079   0.28521   0.07736   0.01600  Uiso   1.00
C5     C     0.32450   0.36360   0.99953   0.01343  Uani   1.00
C6     C     0.23400   0.46910   0.98591   0.01306  Uani   1.00
H7     H     0.16100   0.47371   0.94063   0.01600  Uiso   1.00
C8     C     0.25470   0.56690   0.04104   0.01211  Uani   1.00
C9     C     0.36700   0.56350   0.10760   0.01280  Uani   1.00
H10    H     0.38152   0.63135   0.14306   0.01500  Uiso   1.00
C11    C     0.57830   0.45380   0.19185   0.01335  Uani   1.00
C12    C     0.30860   0.25590   0.94190   0.01280  Uani   1.00
S13    S     0.14042   0.70190   0.03057   0.01278  Uani   1.00
O14    O     0.60360   0.54890   0.23700   0.01455  Uani   1.00
O15    O     0.65360   0.35370   0.20721   0.01566  Uani   1.00
O16    O     0.35660   0.14700   0.96537   0.01832  Uani   1.00
O17    O     0.24960   0.27360   0.86989   0.01337  Uani   1.00
O18    O     0.07520   0.70600   0.10058   0.02006  Uani   1.00
O19    O     0.23530   0.81150   0.02679   0.01668  Uani   1.00
O20    O     0.03600   0.68470   0.95612   0.01915  Uani   1.00
O21    O     0.78870   0.64220   0.38095   0.01624  Uani   1.00
H22    H     0.80569   0.70946   0.35700   0.02000  Uiso   1.00
H23    H     0.77293   0.66222   0.42669   0.02000  Uiso   1.00
O24    O     0.90090   0.56141   0.24000   0.01478  Uani   1.00
H25    H     0.85509   0.61276   0.20580   0.01800  Uiso   1.00
H26    H     0.99059   0.57938   0.24738   0.01800  Uiso   1.00
O27    O     0.04810   0.49230   0.39462   0.01565  Uani   1.00
H28    H     0.10528   0.43068   0.40925   0.01900  Uiso   1.00
H29    H     0.06344   0.54825   0.43112   0.01900  Uiso   1.00
O30    O     0.95790   0.29980   0.28540   0.01466  Uani   1.00
H31    H     0.93952   0.22135   0.27782   0.01800  Uiso   1.00
H32    H     0.01867   0.32157   0.25707   0.01800  Uiso   1.00
O33    O     0.57810   0.42890   0.38061   0.02379  Uani   1.00
H34    H     0.53858   0.35746   0.38498   0.02900  Uiso   1.00
H35    H     0.52090   0.48651   0.39045   0.02900  Uiso   1.00
Ho36   Ho    0.70243   0.94018   0.17097   0.01151  Uani   1.00
C37    C     0.04300   0.95800   0.37937   0.01392  Uani   1.00
C38    C     0.06660   0.85740   0.43249   0.01371  Uani   1.00
H39    H     0.00921   0.78521   0.42264   0.01600  Uiso   1.00
C40    C     0.17550   0.86360   0.50047   0.01343  Uani   1.00
C41    C     0.26600   0.96910   0.51409   0.01306  Uani   1.00
H42    H     0.33900   0.97371   0.55937   0.01600  Uiso   1.00
C43    C     0.24530   1.06690   0.45896   0.01211  Uani   1.00
C44    C     0.13300   1.06350   0.39240   0.01280  Uani   1.00
H45    H     0.11848   1.13135   0.35694   0.01500  Uiso   1.00
C46    C     0.92170   0.95380   0.30815   0.01335  Uani   1.00
C47    C     0.19140   0.75590   0.55810   0.01280  Uani   1.00
S48    S     0.35958   1.20190   0.46943   0.01278  Uani   1.00
O49    O     0.89640   1.04890   0.26300   0.01455  Uani   1.00
O50    O     0.84640   0.85370   0.29279   0.01566  Uani   1.00
O51    O     0.14340   0.64700   0.53463   0.01832  Uani   1.00
O52    O     0.25040   0.77360   0.63011   0.01337  Uani   1.00
O53    O     0.42480   1.20600   0.39942   0.02006  Uani   1.00
O54    O     0.26470   1.31150   0.47321   0.01668  Uani   1.00
O55    O     0.46400   1.18470   0.54388   0.01915  Uani   1.00
O56    O     0.71130   1.14220   0.11905   0.01624  Uani   1.00
H57    H     0.69431   1.20946   0.14300   0.02000  Uiso   1.00
H58    H     0.72707   1.16222   0.07331   0.02000  Uiso   1.00
O59    O     0.59910   1.06141   0.26000   0.01478  Uani   1.00
H60    H     0.64491   1.11276   0.29420   0.01800  Uiso   1.00
H61    H     0.50941   1.07938   0.25262   0.01800  Uiso   1.00
O62    O     0.45190   0.99230   0.10538   0.01565  Uani   1.00
H63    H     0.39472   0.93068   0.09075   0.01900  Uiso   1.00
H64    H     0.43656   1.04825   0.06888   0.01900  Uiso   1.00
O65    O     0.54210   0.79980   0.21460   0.01466  Uani   1.00
H66    H     0.56048   0.72135   0.22218   0.01800  Uiso   1.00
H67    H     0.48133   0.82157   0.24293   0.01800  Uiso   1.00
O68    O     0.92190   0.92890   0.11939   0.02379  Uani   1.00
H69    H     0.96142   0.85746   0.11502   0.02900  Uiso   1.00
H70    H     0.97910   0.98651   0.10955   0.02900  Uiso   1.00
Ho71   Ho    0.20243   0.55982   0.67097   0.01151  Uani   1.00
C72    C     0.54300   0.54200   0.87937   0.01392  Uani   1.00
C73    C     0.56660   0.64260   0.93249   0.01371  Uani   1.00
H74    H     0.50921   0.71479   0.92264   0.01600  Uiso   1.00
C75    C     0.67550   0.63640   0.00047   0.01343  Uani   1.00
C76    C     0.76600   0.53090   0.01409   0.01306  Uani   1.00
H77    H     0.83900   0.52629   0.05937   0.01600  Uiso   1.00
C78    C     0.74530   0.43310   0.95896   0.01211  Uani   1.00
C79    C     0.63300   0.43650   0.89240   0.01280  Uani   1.00
H80    H     0.61848   0.36865   0.85694   0.01500  Uiso   1.00
C81    C     0.42170   0.54620   0.80815   0.01335  Uani   1.00
C82    C     0.69140   0.74410   0.05810   0.01280  Uani   1.00
S83    S     0.85958   0.29810   0.96943   0.01278  Uani   1.00
O84    O     0.39640   0.45110   0.76300   0.01455  Uani   1.00
O85    O     0.34640   0.64630   0.79279   0.01566  Uani   1.00
O86    O     0.64340   0.85300   0.03463   0.01832  Uani   1.00
O87    O     0.75040   0.72640   0.13011   0.01337  Uani   1.00
O88    O     0.92480   0.29400   0.89942   0.02006  Uani   1.00
O89    O     0.76470   0.18850   0.97321   0.01668  Uani   1.00
O90    O     0.96400   0.31530   0.04388   0.01915  Uani   1.00
O91    O     0.21130   0.35780   0.61905   0.01624  Uani   1.00
H92    H     0.19431   0.29054   0.64300   0.02000  Uiso   1.00
H93    H     0.22707   0.33778   0.57331   0.02000  Uiso   1.00
O94    O     0.09910   0.43859   0.76000   0.01478  Uani   1.00
H95    H     0.14491   0.38724   0.79420   0.01800  Uiso   1.00
H96    H     0.00941   0.42062   0.75262   0.01800  Uiso   1.00
O97    O     0.95190   0.50770   0.60538   0.01565  Uani   1.00
H98    H     0.89472   0.56932   0.59075   0.01900  Uiso   1.00
H99    H     0.93656   0.45175   0.56888   0.01900  Uiso   1.00
O100   O     0.04210   0.70020   0.71460   0.01466  Uani   1.00
H101   H     0.06048   0.77865   0.72218   0.01800  Uiso   1.00
H102   H     0.98133   0.67843   0.74293   0.01800  Uiso   1.00
O103   O     0.42190   0.57110   0.61939   0.02379  Uani   1.00
H104   H     0.46142   0.64254   0.61502   0.02900  Uiso   1.00
H105   H     0.47910   0.51349   0.60955   0.02900  Uiso   1.00
Ho106  Ho    0.29757   0.05982   0.82903   0.01151  Uani   1.00
C107   C     0.95700   0.04200   0.62063   0.01392  Uani   1.00
C108   C     0.93340   0.14260   0.56751   0.01371  Uani   1.00
H109   H     0.99079   0.21479   0.57736   0.01600  Uiso   1.00
C110   C     0.82450   0.13640   0.49953   0.01343  Uani   1.00
C111   C     0.73400   0.03090   0.48591   0.01306  Uani   1.00
H112   H     0.66100   0.02629   0.44063   0.01600  Uiso   1.00
C113   C     0.75470  -0.06690   0.54104   0.01211  Uani   1.00
C114   C     0.86700  -0.06350   0.60760   0.01280  Uani   1.00
H115   H     0.88152  -0.13135   0.64306   0.01500  Uiso   1.00
C116   C     0.07830   0.04620   0.69185   0.01335  Uani   1.00
C117   C     0.80860   0.24410   0.44190   0.01280  Uani   1.00
S118   S     0.64042  -0.20190   0.53057   0.01278  Uani   1.00
O119   O     0.10360  -0.04890   0.73700   0.01455  Uani   1.00
O120   O     0.15360   0.14630   0.70721   0.01566  Uani   1.00
O121   O     0.85660   0.35300   0.46537   0.01832  Uani   1.00
O122   O     0.74960   0.22640   0.36989   0.01337  Uani   1.00
O123   O     0.57520  -0.20600   0.60058   0.02006  Uani   1.00
O124   O     0.73530  -0.31150   0.52679   0.01668  Uani   1.00
O125   O     0.53600  -0.18470   0.45612   0.01915  Uani   1.00
O126   O     0.28870  -0.14220   0.88095   0.01624  Uani   1.00
H127   H     0.30569  -0.20946   0.85700   0.02000  Uiso   1.00
H128   H     0.27293  -0.16222   0.92669   0.02000  Uiso   1.00
O129   O     0.40090  -0.06141   0.74000   0.01478  Uani   1.00
H130   H     0.35509  -0.11276   0.70580   0.01800  Uiso   1.00
H131   H     0.49059  -0.07938   0.74738   0.01800  Uiso   1.00
O132   O     0.54810   0.00770   0.89462   0.01565  Uani   1.00
H133   H     0.60528   0.06932   0.90925   0.01900  Uiso   1.00
H134   H     0.56344  -0.04825   0.93112   0.01900  Uiso   1.00
O135   O     0.45790   0.20020   0.78540   0.01466  Uani   1.00
H136   H     0.43952   0.27865   0.77782   0.01800  Uiso   1.00
H137   H     0.51867   0.17843   0.75707   0.01800  Uiso   1.00
O138   O     0.07810   0.07110   0.88061   0.02379  Uani   1.00
H139   H     0.03858   0.14254   0.88498   0.02900  Uiso   1.00
H140   H     0.02090   0.01349   0.89045   0.02900  Uiso   1.00
loop_
_atom_site_aniso_label
_atom_site_aniso_U_11
_atom_site_aniso_U_22
_atom_site_aniso_U_33
_atom_site_aniso_U_12
_atom_site_aniso_U_13
_atom_site_aniso_U_23
Ho1       0.01172   0.00973   0.01271  -0.00044   0.00147   0.00052
C2        0.01450   0.01450   0.01340  -0.00040   0.00430   0.00150
C3        0.01340   0.01190   0.01600   0.00190   0.00330   0.00150
C5        0.01280   0.01280   0.01470  -0.00120   0.00270   0.00040
C6        0.01200   0.01240   0.01400  -0.00290   0.00060   0.00060
C8        0.01020   0.01110   0.01520   0.00190   0.00290   0.00130
C9        0.01290   0.01190   0.01380  -0.00460   0.00310  -0.00240
C11       0.01070   0.01280   0.01680  -0.00190   0.00330   0.00030
C12       0.00850   0.01380   0.01610   0.00060   0.00240   0.00170
S13       0.01250   0.01050   0.01510   0.00220   0.00210   0.00040
O14       0.01430   0.01170   0.01600   0.00070  -0.00110  -0.00260
O15       0.01560   0.01320   0.01610   0.00350  -0.00200  -0.00090
O16       0.02250   0.01350   0.01750   0.00510   0.00030  -0.00080
O17       0.01530   0.01260   0.01160   0.00120   0.00110  -0.00010
O18       0.02030   0.01940   0.02220   0.00790   0.00840   0.00310
O19       0.01880   0.01110   0.01960  -0.00160   0.00240  -0.00160
O20       0.01590   0.01600   0.02210   0.00370  -0.00480  -0.00320
O21       0.02320   0.01250   0.01380  -0.00120   0.00550  -0.00260
O24       0.01130   0.01510   0.01720   0.00210   0.00100   0.00550
O27       0.01450   0.01460   0.01590   0.00070  -0.00180  -0.00040
O30       0.01360   0.00990   0.02030   0.00000   0.00290   0.00070
O33       0.01990   0.01440   0.04030   0.00080   0.01380   0.00700
Ho36      0.01172   0.00973   0.01271   0.00044   0.00147  -0.00052
C37       0.01450   0.01450   0.01340   0.00040   0.00430  -0.00150
C38       0.01340   0.01190   0.01600  -0.00190   0.00330  -0.00150
C40       0.01280   0.01280   0.01470   0.00120   0.00270  -0.00040
C41       0.01200   0.01240   0.01400   0.00290   0.00060  -0.00060
C43       0.01020   0.01110   0.01520  -0.00190   0.00290  -0.00130
C44       0.01290   0.01190   0.01380   0.00460   0.00310   0.00240
C46       0.01070   0.01280   0.01680   0.00190   0.00330  -0.00030
C47       0.00850   0.01380   0.01610  -0.00060   0.00240  -0.00170
S48       0.01250   0.01050   0.01510  -0.00220   0.00210  -0.00040
O49       0.01430   0.01170   0.01600  -0.00070  -0.00110   0.00260
O50       0.01560   0.01320   0.01610  -0.00350  -0.00200   0.00090
O51       0.02250   0.01350   0.01750  -0.00510   0.00030   0.00080
O52       0.01530   0.01260   0.01160  -0.00120   0.00110   0.00010
O53       0.02030   0.01940   0.02220  -0.00790   0.00840  -0.00310
O54       0.01880   0.01110   0.01960   0.00160   0.00240   0.00160
O55       0.01590   0.01600   0.02210  -0.00370  -0.00480   0.00320
O56       0.02320   0.01250   0.01380   0.00120   0.00550   0.00260
O59       0.01130   0.01510   0.01720  -0.00210   0.00100  -0.00550
O62       0.01450   0.01460   0.01590  -0.00070  -0.00180   0.00040
O65       0.01360   0.00990   0.02030   0.00000   0.00290  -0.00070
O68       0.01990   0.01440   0.04030  -0.00080   0.01380  -0.00700
Ho71      0.01172   0.00973   0.01271  -0.00044   0.00147   0.00052
C72       0.01450   0.01450   0.01340  -0.00040   0.00430   0.00150
C73       0.01340   0.01190   0.01600   0.00190   0.00330   0.00150
C75       0.01280   0.01280   0.01470  -0.00120   0.00270   0.00040
C76       0.01200   0.01240   0.01400  -0.00290   0.00060   0.00060
C78       0.01020   0.01110   0.01520   0.00190   0.00290   0.00130
C79       0.01290   0.01190   0.01380  -0.00460   0.00310  -0.00240
C81       0.01070   0.01280   0.01680  -0.00190   0.00330   0.00030
C82       0.00850   0.01380   0.01610   0.00060   0.00240   0.00170
S83       0.01250   0.01050   0.01510   0.00220   0.00210   0.00040
O84       0.01430   0.01170   0.01600   0.00070  -0.00110  -0.00260
O85       0.01560   0.01320   0.01610   0.00350  -0.00200  -0.00090
O86       0.02250   0.01350   0.01750   0.00510   0.00030  -0.00080
O87       0.01530   0.01260   0.01160   0.00120   0.00110  -0.00010
O88       0.02030   0.01940   0.02220   0.00790   0.00840   0.00310
O89       0.01880   0.01110   0.01960  -0.00160   0.00240  -0.00160
O90       0.01590   0.01600   0.02210   0.00370  -0.00480  -0.00320
O91       0.02320   0.01250   0.01380  -0.00120   0.00550  -0.00260
O94       0.01130   0.01510   0.01720   0.00210   0.00100   0.00550
O97       0.01450   0.01460   0.01590   0.00070  -0.00180  -0.00040
O100      0.01360   0.00990   0.02030   0.00000   0.00290   0.00070
O103      0.01990   0.01440   0.04030   0.00080   0.01380   0.00700
Ho106     0.01172   0.00973   0.01271   0.00044   0.00147  -0.00052
C107      0.01450   0.01450   0.01340   0.00040   0.00430  -0.00150
C108      0.01340   0.01190   0.01600  -0.00190   0.00330  -0.00150
C110      0.01280   0.01280   0.01470   0.00120   0.00270  -0.00040
C111      0.01200   0.01240   0.01400   0.00290   0.00060  -0.00060
C113      0.01020   0.01110   0.01520  -0.00190   0.00290  -0.00130
C114      0.01290   0.01190   0.01380   0.00460   0.00310   0.00240
C116      0.01070   0.01280   0.01680   0.00190   0.00330  -0.00030
C117      0.00850   0.01380   0.01610  -0.00060   0.00240  -0.00170
S118      0.01250   0.01050   0.01510  -0.00220   0.00210  -0.00040
O119      0.01430   0.01170   0.01600  -0.00070  -0.00110   0.00260
O120      0.01560   0.01320   0.01610  -0.00350  -0.00200   0.00090
O121      0.02250   0.01350   0.01750  -0.00510   0.00030   0.00080
O122      0.01530   0.01260   0.01160  -0.00120   0.00110   0.00010
O123      0.02030   0.01940   0.02220  -0.00790   0.00840  -0.00310
O124      0.01880   0.01110   0.01960   0.00160   0.00240   0.00160
O125      0.01590   0.01600   0.02210  -0.00370  -0.00480   0.00320
O126      0.02320   0.01250   0.01380   0.00120   0.00550   0.00260
O129      0.01130   0.01510   0.01720  -0.00210   0.00100  -0.00550
O132      0.01450   0.01460   0.01590  -0.00070  -0.00180   0.00040
O135      0.01360   0.00990   0.02030   0.00000   0.00290  -0.00070
O138      0.01990   0.01440   0.04030  -0.00080   0.01380  -0.00700
loop_
_geom_bond_atom_site_label_1
_geom_bond_atom_site_label_2
_geom_bond_distance
_geom_bond_site_symmetry_2
_ccdc_geom_bond_type
Ho1    O14     2.449   .     S
Ho1    O15     2.428   .     S
Ho1    O21     2.316   .     S
Ho1    O24     2.339   .     S
Ho1    O27     2.467   1_655 S
Ho1    O30     2.338   .     S
Ho1    O33     2.402   .     S
Ho1    O121    2.464   .     S
Ho1    O122    2.429   .     S
C2     C3      1.386   .     S
C2     C9      1.390   .     S
C2     C11     1.498   .     S
C3     H4      0.930   .     S
C3     C5      1.392   1_554 S
C5     C3      1.392   1_556 S
C5     C6      1.393   .     S
C5     C12     1.491   .     S
C6     H7      0.930   .     S
C6     C8      1.385   1_556 S
C8     C6      1.385   1_554 S
C8     S13     1.773   .     S
C8     C9      1.393   .     S
C9     H10     0.930   .     S
C11    O14     1.259   .     S
C11    O15     1.270   .     S
C12    O16     1.270   .     S
C12    O17     1.261   .     S
S13    O18     1.448   .     S
S13    O19     1.470   .     S
S13    O20     1.459   1_554 S
O16    Ho106   2.464   .     S
O17    Ho106   2.429   .     S
O20    S13     1.459   1_556 S
O21    H22     0.850   .     S
O21    H23     0.850   .     S
O24    H25     0.850   .     S
O24    H26     0.850   .     S
O27    Ho1     2.467   1_455 S
O27    H28     0.850   .     S
O27    H29     0.850   .     S
O30    H31     0.850   .     S
O30    H32     0.850   1_655 S
H32    O30     0.850   1_455 S
O33    H34     0.850   .     S
O33    H35     0.850   .     S
Ho36   O49     2.449   .     S
Ho36   O50     2.428   .     S
Ho36   O56     2.316   .     S
Ho36   O59     2.339   .     S
Ho36   O62     2.467   .     S
Ho36   O65     2.338   .     S
Ho36   O68     2.402   .     S
Ho36   O86     2.464   .     S
Ho36   O87     2.429   .     S
C37    C38     1.386   .     S
C37    C44     1.390   .     S
C37    C46     1.498   1_455 S
C38    H39     0.930   .     S
C38    C40     1.392   .     S
C40    C41     1.393   .     S
C40    C47     1.491   .     S
C41    H42     0.930   .     S
C41    C43     1.385   .     S
C43    S48     1.773   .     S
C43    C44     1.393   .     S
C44    H45     0.930   .     S
C46    C37     1.498   1_655 S
C46    O49     1.259   .     S
C46    O50     1.270   .     S
C47    O51     1.270   .     S
C47    O52     1.261   .     S
S48    O53     1.448   .     S
S48    O54     1.470   .     S
S48    O55     1.459   .     S
O51    Ho71    2.464   .     S
O52    Ho71    2.429   .     S
O56    H57     0.850   .     S
O56    H58     0.850   .     S
O59    H60     0.850   .     S
O59    H61     0.850   .     S
O62    H63     0.850   .     S
O62    H64     0.850   .     S
O65    H66     0.850   .     S
O65    H67     0.850   .     S
O68    H69     0.850   .     S
O68    H70     0.850   .     S
Ho71   O84     2.449   .     S
Ho71   O85     2.428   .     S
Ho71   O91     2.316   .     S
Ho71   O94     2.339   .     S
Ho71   O97     2.467   1_455 S
Ho71   O100    2.338   .     S
Ho71   O103    2.402   .     S
C72    C73     1.386   .     S
C72    C79     1.390   .     S
C72    C81     1.498   .     S
C73    H74     0.930   .     S
C73    C75     1.392   1_556 S
C75    C73     1.392   1_554 S
C75    C76     1.393   .     S
C75    C82     1.491   .     S
C76    H77     0.930   .     S
C76    C78     1.385   1_554 S
C78    C76     1.385   1_556 S
C78    S83     1.773   .     S
C78    C79     1.393   .     S
C79    H80     0.930   .     S
C81    O84     1.259   .     S
C81    O85     1.270   .     S
C82    O86     1.270   .     S
C82    O87     1.261   .     S
S83    O88     1.448   .     S
S83    O89     1.470   .     S
S83    O90     1.459   1_556 S
O90    S83     1.459   1_554 S
O91    H92     0.850   .     S
O91    H93     0.850   .     S
O94    H95     0.850   .     S
O94    H96     0.850   .     S
O97    Ho71    2.467   1_655 S
O97    H98     0.850   .     S
O97    H99     0.850   .     S
O100   H101    0.850   .     S
O100   H102    0.850   1_455 S
H102   O100    0.850   1_655 S
O103   H104    0.850   .     S
O103   H105    0.850   .     S
Ho106  O119    2.449   .     S
Ho106  O120    2.428   .     S
Ho106  O126    2.316   .     S
Ho106  O129    2.339   .     S
Ho106  O132    2.467   .     S
Ho106  O135    2.338   .     S
Ho106  O138    2.402   .     S
C107   C108    1.386   .     S
C107   C114    1.390   .     S
C107   C116    1.498   1_655 S
C108   H109    0.930   .     S
C108   C110    1.392   .     S
C110   C111    1.393   .     S
C110   C117    1.491   .     S
C111   H112    0.930   .     S
C111   C113    1.385   .     S
C113   S118    1.773   .     S
C113   C114    1.393   .     S
C114   H115    0.930   .     S
C116   C107    1.498   1_455 S
C116   O119    1.259   .     S
C116   O120    1.270   .     S
C117   O121    1.270   .     S
C117   O122    1.261   .     S
S118   O123    1.448   .     S
S118   O124    1.470   .     S
S118   O125    1.459   .     S
O126   H127    0.850   .     S
O126   H128    0.850   .     S
O129   H130    0.850   .     S
O129   H131    0.850   .     S
O132   H133    0.850   .     S
O132   H134    0.850   .     S
O135   H136    0.850   .     S
O135   H137    0.850   .     S
O138   H139    0.850   .     S
O138   H140    0.850   .     S
