data_HASNIB_FSR
_audit_creation_date              2024-06-11
_audit_creation_method            'Materials Studio'
_symmetry_space_group_name_H-M    'P1'
_symmetry_Int_Tables_number       1
_symmetry_cell_setting            triclinic
loop_
_symmetry_equiv_pos_as_xyz
  x,y,z
_cell_length_a                    9.8029
_cell_length_b                    17.5059
_cell_length_c                    14.6324
_cell_angle_alpha                 90.0000
_cell_angle_beta                  97.1208
_cell_angle_gamma                 90.0000
loop_
_atom_site_label
_atom_site_type_symbol
_atom_site_fract_x
_atom_site_fract_y
_atom_site_fract_z
_atom_site_U_iso_or_equiv
_atom_site_adp_type
_atom_site_occupancy
Eu1    Eu    0.49477   0.12162   0.15829   0.00000  Uiso   1.00
Eu2    Eu    0.51936   0.83688   0.41241   0.00000  Uiso   1.00
O3     O     0.58000   0.88360   0.26240   0.00000  Uiso   1.00
O4     O     0.61050   0.99950   0.20110   0.00000  Uiso   1.00
O5     O     0.37450   0.04620   0.26100   0.00000  Uiso   1.00
O6     O     0.36280   0.93640   0.33550   0.00000  Uiso   1.00
C7     C     0.41660   0.98090   0.28310   0.00000  Uiso   1.00
C8     C     0.54850   0.95220   0.24520   0.00000  Uiso   1.00
O9     O     0.74390   0.13490   0.15920   0.00000  Uiso   1.00
O10    O     0.31500   0.17400   0.04630   0.00000  Uiso   1.00
O11    O     0.32950   0.19900   0.22670   0.00000  Uiso   1.00
O12    O     0.59960   0.16120   0.31340   0.00000  Uiso   1.00
H13    H     0.68840   0.16040   0.31670   0.00000  Uiso   1.00
H14    H     0.57470   0.13030   0.35440   0.00000  Uiso   1.00
O15    O     0.57150   0.09100   0.00950   0.00000  Uiso   1.00
C16    C     0.23890   0.23470   0.17720   0.00000  Uiso   1.00
C17    C     0.23320   0.22280   0.07240   0.00000  Uiso   1.00
O18    O     0.41420   0.91640   0.52400   0.00000  Uiso   1.00
O19    O     0.62650   0.99080   0.92690   0.00000  Uiso   1.00
O20    O     0.73530   0.32570   0.09400   0.00000  Uiso   1.00
O21    O     0.15110   0.27990   0.20320   0.00000  Uiso   1.00
O22    O     0.14900   0.26300   0.02160   0.00000  Uiso   1.00
C23    C     0.55730   0.02400   0.98140   0.00000  Uiso   1.00
C24    C     0.43720   0.98650   0.52340   0.00000  Uiso   1.00
O25    O     0.91050   0.20820   0.11680   0.00000  Uiso   1.00
O26    O     0.56450   0.24980   0.12740   0.00000  Uiso   1.00
C27    C     0.68650   0.26350   0.11610   0.00000  Uiso   1.00
C28    C     0.78960   0.19550   0.13190   0.00000  Uiso   1.00
O29    O     0.36990   0.03700   0.55820   0.00000  Uiso   1.00
O30    O     0.63300   0.80490   0.56580   0.00000  Uiso   1.00
H31    H     0.58880   0.82510   0.60780   0.00000  Uiso   1.00
H32    H     0.71700   0.82220   0.57330   0.00000  Uiso   1.00
Eu33   Eu    0.00523   0.62162   0.34171   0.00000  Uiso   1.00
Eu34   Eu    0.98064   0.33688   0.08759   0.00000  Uiso   1.00
O35    O     0.92000   0.38360   0.23760   0.00000  Uiso   1.00
O36    O     0.88950   0.49950   0.29890   0.00000  Uiso   1.00
O37    O     0.12550   0.54620   0.23900   0.00000  Uiso   1.00
O38    O     0.13720   0.43640   0.16450   0.00000  Uiso   1.00
C39    C     0.08340   0.48090   0.21690   0.00000  Uiso   1.00
C40    C     0.95150   0.45220   0.25480   0.00000  Uiso   1.00
O41    O     0.75610   0.63490   0.34080   0.00000  Uiso   1.00
O42    O     0.18500   0.67400   0.45370   0.00000  Uiso   1.00
O43    O     0.17050   0.69900   0.27330   0.00000  Uiso   1.00
O44    O     0.90040   0.66120   0.18660   0.00000  Uiso   1.00
H45    H     0.81160   0.66040   0.18330   0.00000  Uiso   1.00
H46    H     0.92530   0.63030   0.14560   0.00000  Uiso   1.00
O47    O     0.92850   0.59100   0.49050   0.00000  Uiso   1.00
C48    C     0.26110   0.73470   0.32280   0.00000  Uiso   1.00
C49    C     0.26680   0.72280   0.42760   0.00000  Uiso   1.00
O50    O     0.08580   0.41640   0.97600   0.00000  Uiso   1.00
O51    O     0.87350   0.49080   0.57310   0.00000  Uiso   1.00
O52    O     0.76470   0.82570   0.40600   0.00000  Uiso   1.00
O53    O     0.34890   0.77990   0.29680   0.00000  Uiso   1.00
O54    O     0.35100   0.76300   0.47840   0.00000  Uiso   1.00
C55    C     0.94270   0.52400   0.51860   0.00000  Uiso   1.00
C56    C     0.06280   0.48650   0.97660   0.00000  Uiso   1.00
O57    O     0.58950   0.70820   0.38320   0.00000  Uiso   1.00
O58    O     0.93550   0.74980   0.37260   0.00000  Uiso   1.00
C59    C     0.81350   0.76350   0.38390   0.00000  Uiso   1.00
C60    C     0.71040   0.69550   0.36810   0.00000  Uiso   1.00
O61    O     0.13010   0.53700   0.94180   0.00000  Uiso   1.00
O62    O     0.86700   0.30490   0.93420   0.00000  Uiso   1.00
H63    H     0.91120   0.32510   0.89220   0.00000  Uiso   1.00
H64    H     0.78300   0.32220   0.92670   0.00000  Uiso   1.00
Eu65   Eu    0.50523   0.87838   0.84171   0.00000  Uiso   1.00
Eu66   Eu    0.48064   0.16312   0.58759   0.00000  Uiso   1.00
O67    O     0.42000   0.11640   0.73760   0.00000  Uiso   1.00
O68    O     0.38950   0.00050   0.79890   0.00000  Uiso   1.00
O69    O     0.62550   0.95380   0.73900   0.00000  Uiso   1.00
O70    O     0.63720   0.06360   0.66450   0.00000  Uiso   1.00
C71    C     0.58340   0.01910   0.71690   0.00000  Uiso   1.00
C72    C     0.45150   0.04780   0.75480   0.00000  Uiso   1.00
O73    O     0.25610   0.86510   0.84080   0.00000  Uiso   1.00
O74    O     0.68500   0.82600   0.95370   0.00000  Uiso   1.00
O75    O     0.67050   0.80100   0.77330   0.00000  Uiso   1.00
O76    O     0.40040   0.83880   0.68660   0.00000  Uiso   1.00
H77    H     0.31160   0.83960   0.68330   0.00000  Uiso   1.00
H78    H     0.42530   0.86970   0.64560   0.00000  Uiso   1.00
O79    O     0.42850   0.90900   0.99050   0.00000  Uiso   1.00
C80    C     0.76110   0.76530   0.82280   0.00000  Uiso   1.00
C81    C     0.76680   0.77720   0.92760   0.00000  Uiso   1.00
O82    O     0.58580   0.08360   0.47600   0.00000  Uiso   1.00
O83    O     0.37350   0.00920   0.07310   0.00000  Uiso   1.00
O84    O     0.26470   0.67430   0.90600   0.00000  Uiso   1.00
O85    O     0.84890   0.72010   0.79680   0.00000  Uiso   1.00
O86    O     0.85100   0.73700   0.97840   0.00000  Uiso   1.00
C87    C     0.44270   0.97600   0.01860   0.00000  Uiso   1.00
C88    C     0.56280   0.01350   0.47660   0.00000  Uiso   1.00
O89    O     0.08950   0.79180   0.88320   0.00000  Uiso   1.00
O90    O     0.43550   0.75020   0.87260   0.00000  Uiso   1.00
C91    C     0.31350   0.73650   0.88390   0.00000  Uiso   1.00
C92    C     0.21040   0.80450   0.86810   0.00000  Uiso   1.00
O93    O     0.63010   0.96300   0.44180   0.00000  Uiso   1.00
O94    O     0.36700   0.19510   0.43420   0.00000  Uiso   1.00
H95    H     0.41120   0.17490   0.39220   0.00000  Uiso   1.00
H96    H     0.28300   0.17780   0.42670   0.00000  Uiso   1.00
Eu97   Eu    0.99477   0.37838   0.65829   0.00000  Uiso   1.00
Eu98   Eu    0.01936   0.66312   0.91241   0.00000  Uiso   1.00
O99    O     0.08000   0.61640   0.76240   0.00000  Uiso   1.00
O100   O     0.11050   0.50050   0.70110   0.00000  Uiso   1.00
O101   O     0.87450   0.45380   0.76100   0.00000  Uiso   1.00
O102   O     0.86280   0.56360   0.83550   0.00000  Uiso   1.00
C103   C     0.91660   0.51910   0.78310   0.00000  Uiso   1.00
C104   C     0.04850   0.54780   0.74520   0.00000  Uiso   1.00
O105   O     0.24390   0.36510   0.65920   0.00000  Uiso   1.00
O106   O     0.81500   0.32600   0.54630   0.00000  Uiso   1.00
O107   O     0.82950   0.30100   0.72670   0.00000  Uiso   1.00
O108   O     0.09960   0.33880   0.81340   0.00000  Uiso   1.00
H109   H     0.18840   0.33960   0.81670   0.00000  Uiso   1.00
H110   H     0.07470   0.36970   0.85440   0.00000  Uiso   1.00
O111   O     0.07150   0.40900   0.50950   0.00000  Uiso   1.00
C112   C     0.73890   0.26530   0.67720   0.00000  Uiso   1.00
C113   C     0.73320   0.27720   0.57240   0.00000  Uiso   1.00
O114   O     0.91420   0.58360   0.02400   0.00000  Uiso   1.00
O115   O     0.12650   0.50920   0.42690   0.00000  Uiso   1.00
O116   O     0.23530   0.17430   0.59400   0.00000  Uiso   1.00
O117   O     0.65110   0.22010   0.70320   0.00000  Uiso   1.00
O118   O     0.64900   0.23700   0.52160   0.00000  Uiso   1.00
C119   C     0.05730   0.47600   0.48140   0.00000  Uiso   1.00
C120   C     0.93720   0.51350   0.02340   0.00000  Uiso   1.00
O121   O     0.41050   0.29180   0.61680   0.00000  Uiso   1.00
O122   O     0.06450   0.25020   0.62740   0.00000  Uiso   1.00
C123   C     0.18650   0.23650   0.61610   0.00000  Uiso   1.00
C124   C     0.28960   0.30450   0.63190   0.00000  Uiso   1.00
O125   O     0.86990   0.46300   0.05820   0.00000  Uiso   1.00
O126   O     0.13300   0.69510   0.06580   0.00000  Uiso   1.00
H127   H     0.08880   0.67490   0.10780   0.00000  Uiso   1.00
H128   H     0.21700   0.67780   0.07330   0.00000  Uiso   1.00
loop_
_geom_bond_atom_site_label_1
_geom_bond_atom_site_label_2
_geom_bond_distance
_geom_bond_site_symmetry_2
_ccdc_geom_bond_type
Eu1    O4      2.464   1_545 S
Eu1    O5      2.415   .     S
Eu1    O9      2.452   .     S
Eu1    O10     2.432   .     S
Eu1    O11     2.422   .     S
Eu1    O12     2.472   .     S
Eu1    O15     2.449   .     S
Eu1    O26     2.405   .     S
Eu1    O83     2.544   .     S
Eu2    O3      2.483   .     S
Eu2    O6      2.496   .     S
Eu2    O18     2.467   .     S
Eu2    O30     2.444   .     S
Eu2    O93     2.474   .     S
Eu2    O52     2.426   .     S
Eu2    O53     2.439   .     S
Eu2    O54     2.393   .     S
Eu2    O57     2.409   .     S
O3     C8      1.258   .     S
O4     Eu1     2.464   1_565 S
O4     C8      1.252   .     S
O5     C7      1.244   1_545 S
O6     C7      1.254   .     S
C7     O5      1.244   1_565 S
C7     C8      1.552   .     S
O9     C28     1.237   .     S
O10    C17     1.263   .     S
O11    C16     1.243   .     S
O12    H13     0.866   .     S
O12    H14     0.865   .     S
O15    C23     1.245   1_554 S
C16    O21     1.262   .     S
C16    C17     1.542   .     S
C17    O22     1.256   .     S
O18    C24     1.248   .     S
O19    C23     1.252   1_565 S
O19    Eu65    2.544   .     S
O20    C27     1.248   .     S
O20    Eu34    2.426   .     S
O21    Eu34    2.439   1_455 S
O22    Eu34    2.393   1_455 S
C23    O19     1.252   1_545 S
C23    O15     1.245   1_556 S
C23    C87     1.554   1_546 S
C24    O29     1.249   1_565 S
C24    C88     1.555   1_565 S
O25    C28     1.252   .     S
O25    Eu34    2.409   .     S
O26    C27     1.251   .     S
C27    C28     1.560   .     S
O29    C24     1.249   1_545 S
O29    Eu66    2.474   .     S
O30    H31     0.870   .     S
O30    H32     0.871   .     S
Eu33   O36     2.464   1_455 S
Eu33   O37     2.415   .     S
Eu33   O41     2.452   1_455 S
Eu33   O42     2.432   .     S
Eu33   O43     2.422   .     S
Eu33   O44     2.472   1_455 S
Eu33   O47     2.449   1_455 S
Eu33   O58     2.405   1_455 S
Eu33   O115    2.544   .     S
Eu34   O35     2.483   .     S
Eu34   O38     2.496   1_655 S
Eu34   O50     2.467   1_654 S
Eu34   O62     2.444   1_554 S
Eu34   O125    2.474   .     S
Eu34   O21     2.439   1_655 S
Eu34   O22     2.393   1_655 S
O35    C40     1.258   .     S
O36    Eu33    2.464   1_655 S
O36    C40     1.252   .     S
O37    C39     1.244   .     S
O38    Eu34    2.496   1_455 S
O38    C39     1.254   .     S
C39    C40     1.552   1_455 S
C40    C39     1.552   1_655 S
O41    Eu33    2.452   1_655 S
O41    C60     1.237   .     S
O42    C49     1.263   .     S
O43    C48     1.243   .     S
O44    Eu33    2.472   1_655 S
O44    H45     0.866   .     S
O44    H46     0.865   .     S
O47    Eu33    2.449   1_655 S
O47    C55     1.245   .     S
C48    O53     1.262   .     S
C48    C49     1.542   .     S
C49    O54     1.256   .     S
O50    Eu34    2.467   1_456 S
O50    C56     1.248   .     S
O51    C55     1.252   .     S
O51    Eu97    2.544   .     S
O52    C59     1.248   .     S
C55    C119    1.554   1_655 S
C56    O61     1.249   .     S
C56    C120    1.555   1_456 S
O57    C60     1.252   .     S
O58    Eu33    2.405   1_655 S
O58    C59     1.251   .     S
C59    C60     1.560   .     S
O61    Eu98    2.474   .     S
O62    Eu34    2.444   1_556 S
O62    H63     0.870   .     S
O62    H64     0.871   .     S
Eu65   O68     2.464   1_565 S
Eu65   O69     2.415   .     S
Eu65   O73     2.452   .     S
Eu65   O74     2.432   .     S
Eu65   O75     2.422   .     S
Eu65   O76     2.472   .     S
Eu65   O79     2.449   .     S
Eu65   O90     2.405   .     S
Eu66   O67     2.483   .     S
Eu66   O70     2.496   .     S
Eu66   O82     2.467   .     S
Eu66   O94     2.444   .     S
Eu66   O116    2.426   .     S
Eu66   O117    2.439   .     S
Eu66   O118    2.393   .     S
Eu66   O121    2.409   .     S
O67    C72     1.258   .     S
O68    Eu65    2.464   1_545 S
O68    C72     1.252   .     S
O69    C71     1.244   1_565 S
O70    C71     1.254   .     S
C71    O69     1.244   1_545 S
C71    C72     1.552   .     S
O73    C92     1.237   .     S
O74    C81     1.263   .     S
O75    C80     1.243   .     S
O76    H77     0.866   .     S
O76    H78     0.865   .     S
O79    C87     1.245   1_556 S
C80    O85     1.262   .     S
C80    C81     1.542   .     S
C81    O86     1.256   .     S
O82    C88     1.248   .     S
O83    C87     1.252   1_545 S
O84    C91     1.248   .     S
O84    Eu98    2.426   .     S
O85    Eu98    2.439   1_655 S
O86    Eu98    2.393   1_655 S
C87    O83     1.252   1_565 S
C87    O79     1.245   1_554 S
C87    C23     1.554   1_564 S
C88    O93     1.249   1_545 S
C88    C24     1.555   1_545 S
O89    C92     1.252   .     S
O89    Eu98    2.409   .     S
O90    C91     1.251   .     S
C91    C92     1.560   .     S
O93    C88     1.249   1_565 S
O94    H95     0.870   .     S
O94    H96     0.871   .     S
Eu97   O100    2.464   1_655 S
Eu97   O101    2.415   .     S
Eu97   O105    2.452   1_655 S
Eu97   O106    2.432   .     S
Eu97   O107    2.422   .     S
Eu97   O108    2.472   1_655 S
Eu97   O111    2.449   1_655 S
Eu97   O122    2.405   1_655 S
Eu98   O99     2.483   .     S
Eu98   O102    2.496   1_455 S
Eu98   O114    2.467   1_456 S
Eu98   O126    2.444   1_556 S
Eu98   O85     2.439   1_455 S
Eu98   O86     2.393   1_455 S
O99    C104    1.258   .     S
O100   Eu97    2.464   1_455 S
O100   C104    1.252   .     S
O101   C103    1.244   .     S
O102   Eu98    2.496   1_655 S
O102   C103    1.254   .     S
C103   C104    1.552   1_655 S
C104   C103    1.552   1_455 S
O105   Eu97    2.452   1_455 S
O105   C124    1.237   .     S
O106   C113    1.263   .     S
O107   C112    1.243   .     S
O108   Eu97    2.472   1_455 S
O108   H109    0.866   .     S
O108   H110    0.865   .     S
O111   Eu97    2.449   1_455 S
O111   C119    1.245   .     S
C112   O117    1.262   .     S
C112   C113    1.542   .     S
C113   O118    1.256   .     S
O114   Eu98    2.467   1_654 S
O114   C120    1.248   .     S
O115   C119    1.252   .     S
O116   C123    1.248   .     S
C119   C55     1.554   1_455 S
C120   O125    1.249   .     S
C120   C56     1.555   1_654 S
O121   C124    1.252   .     S
O122   Eu97    2.405   1_455 S
O122   C123    1.251   .     S
C123   C124    1.560   .     S
O126   Eu98    2.444   1_554 S
O126   H127    0.870   .     S
O126   H128    0.871   .     S
