data_HASNOH_FSR
_audit_creation_date              2024-06-11
_audit_creation_method            'Materials Studio'
_symmetry_space_group_name_H-M    'P1'
_symmetry_Int_Tables_number       1
_symmetry_cell_setting            triclinic
loop_
_symmetry_equiv_pos_as_xyz
  x,y,z
_cell_length_a                    9.7909
_cell_length_b                    17.2987
_cell_length_c                    14.5929
_cell_angle_alpha                 90.0000
_cell_angle_beta                  97.1322
_cell_angle_gamma                 90.0000
loop_
_atom_site_label
_atom_site_type_symbol
_atom_site_fract_x
_atom_site_fract_y
_atom_site_fract_z
_atom_site_U_iso_or_equiv
_atom_site_adp_type
_atom_site_occupancy
Tb1    Tb    0.50465   0.37811   0.34159   0.00000  Uiso   1.00
Tb2    Tb    0.01903   0.16358   0.41219   0.00000  Uiso   1.00
O3     O     0.39010   0.50080   0.29960   0.00000  Uiso   1.00
O4     O     0.41880   0.61710   0.23690   0.00000  Uiso   1.00
O5     O     0.62580   0.45300   0.23990   0.00000  Uiso   1.00
O6     O     0.63700   0.56380   0.16360   0.00000  Uiso   1.00
O7     O     0.25590   0.36610   0.33960   0.00000  Uiso   1.00
O8     O     0.08840   0.29200   0.38220   0.00000  Uiso   1.00
O9     O     0.43500   0.24970   0.37220   0.00000  Uiso   1.00
O10    O     0.26370   0.17360   0.40740   0.00000  Uiso   1.00
O11    O     0.84970   0.22010   0.29700   0.00000  Uiso   1.00
O12    O     0.66780   0.29970   0.27290   0.00000  Uiso   1.00
O13    O     0.85320   0.23850   0.47830   0.00000  Uiso   1.00
O14    O     0.68300   0.32620   0.45330   0.00000  Uiso   1.00
O15    O     0.42750   0.40880   0.48880   0.00000  Uiso   1.00
O16    O     0.37410   0.50950   0.57390   0.00000  Uiso   1.00
O17    O     0.91360   0.08440   0.52350   0.00000  Uiso   1.00
O18    O     0.87130   0.96210   0.55870   0.00000  Uiso   1.00
O19    O     0.40120   0.33870   0.18710   0.00000  Uiso   1.00
H20    H     0.40490   0.37620   0.14900   0.00000  Uiso   1.00
H21    H     0.31670   0.32600   0.18850   0.00000  Uiso   1.00
O22    O     0.13100   0.19490   0.56430   0.00000  Uiso   1.00
C23    C     0.45230   0.54880   0.25460   0.00000  Uiso   1.00
C24    C     0.58280   0.51850   0.21660   0.00000  Uiso   1.00
C25    C     0.20950   0.30490   0.36670   0.00000  Uiso   1.00
C26    C     0.31290   0.23560   0.38360   0.00000  Uiso   1.00
C27    C     0.76020   0.26510   0.32250   0.00000  Uiso   1.00
C28    C     0.76710   0.27740   0.42800   0.00000  Uiso   1.00
C29    C     0.44220   0.47580   0.51810   0.00000  Uiso   1.00
C30    C     0.93830   0.01340   0.52420   0.00000  Uiso   1.00
H31    H     0.10700   0.18200   0.61500   0.00000  Uiso   1.00
H32    H     0.19100   0.18600   0.52900   0.00000  Uiso   1.00
Tb33   Tb    0.99535   0.87811   0.15841   0.00000  Uiso   1.00
Tb34   Tb    0.48097   0.66358   0.08781   0.00000  Uiso   1.00
O35    O     0.10990   0.00080   0.20040   0.00000  Uiso   1.00
O36    O     0.08120   0.11710   0.26310   0.00000  Uiso   1.00
O37    O     0.87420   0.95300   0.26010   0.00000  Uiso   1.00
O38    O     0.86300   0.06380   0.33640   0.00000  Uiso   1.00
O39    O     0.24410   0.86610   0.16040   0.00000  Uiso   1.00
O40    O     0.41160   0.79200   0.11780   0.00000  Uiso   1.00
O41    O     0.06500   0.74970   0.12780   0.00000  Uiso   1.00
O42    O     0.23630   0.67360   0.09260   0.00000  Uiso   1.00
O43    O     0.65030   0.72010   0.20300   0.00000  Uiso   1.00
O44    O     0.83220   0.79970   0.22710   0.00000  Uiso   1.00
O45    O     0.64680   0.73850   0.02170   0.00000  Uiso   1.00
O46    O     0.81700   0.82620   0.04670   0.00000  Uiso   1.00
O47    O     0.07250   0.90880   0.01120   0.00000  Uiso   1.00
O48    O     0.12590   0.00950   0.92610   0.00000  Uiso   1.00
O49    O     0.58640   0.58440   0.97650   0.00000  Uiso   1.00
O50    O     0.62870   0.46210   0.94130   0.00000  Uiso   1.00
O51    O     0.09880   0.83870   0.31290   0.00000  Uiso   1.00
H52    H     0.09510   0.87620   0.35100   0.00000  Uiso   1.00
H53    H     0.18330   0.82600   0.31150   0.00000  Uiso   1.00
O54    O     0.36900   0.69490   0.93570   0.00000  Uiso   1.00
C55    C     0.04770   0.04880   0.24540   0.00000  Uiso   1.00
C56    C     0.91720   0.01850   0.28340   0.00000  Uiso   1.00
C57    C     0.29050   0.80490   0.13330   0.00000  Uiso   1.00
C58    C     0.18710   0.73560   0.11640   0.00000  Uiso   1.00
C59    C     0.73980   0.76510   0.17750   0.00000  Uiso   1.00
C60    C     0.73290   0.77740   0.07200   0.00000  Uiso   1.00
C61    C     0.05780   0.97580   0.98190   0.00000  Uiso   1.00
C62    C     0.56170   0.51340   0.97580   0.00000  Uiso   1.00
H63    H     0.39300   0.68200   0.88500   0.00000  Uiso   1.00
H64    H     0.30900   0.68600   0.97100   0.00000  Uiso   1.00
Tb65   Tb    0.49535   0.62189   0.65841   0.00000  Uiso   1.00
Tb66   Tb    0.98097   0.83642   0.58781   0.00000  Uiso   1.00
O67    O     0.60990   0.49920   0.70040   0.00000  Uiso   1.00
O68    O     0.58120   0.38290   0.76310   0.00000  Uiso   1.00
O69    O     0.37420   0.54700   0.76010   0.00000  Uiso   1.00
O70    O     0.36300   0.43620   0.83640   0.00000  Uiso   1.00
O71    O     0.74410   0.63390   0.66040   0.00000  Uiso   1.00
O72    O     0.91160   0.70800   0.61780   0.00000  Uiso   1.00
O73    O     0.56500   0.75030   0.62780   0.00000  Uiso   1.00
O74    O     0.73630   0.82640   0.59260   0.00000  Uiso   1.00
O75    O     0.15030   0.77990   0.70300   0.00000  Uiso   1.00
O76    O     0.33220   0.70030   0.72710   0.00000  Uiso   1.00
O77    O     0.14680   0.76150   0.52170   0.00000  Uiso   1.00
O78    O     0.31700   0.67380   0.54670   0.00000  Uiso   1.00
O79    O     0.57250   0.59120   0.51120   0.00000  Uiso   1.00
O80    O     0.62590   0.49050   0.42610   0.00000  Uiso   1.00
O81    O     0.08640   0.91560   0.47650   0.00000  Uiso   1.00
O82    O     0.12870   0.03790   0.44130   0.00000  Uiso   1.00
O83    O     0.59880   0.66130   0.81290   0.00000  Uiso   1.00
H84    H     0.59510   0.62380   0.85100   0.00000  Uiso   1.00
H85    H     0.68330   0.67400   0.81150   0.00000  Uiso   1.00
O86    O     0.86900   0.80510   0.43570   0.00000  Uiso   1.00
C87    C     0.54770   0.45120   0.74540   0.00000  Uiso   1.00
C88    C     0.41720   0.48150   0.78340   0.00000  Uiso   1.00
C89    C     0.79050   0.69510   0.63330   0.00000  Uiso   1.00
C90    C     0.68710   0.76440   0.61640   0.00000  Uiso   1.00
C91    C     0.23980   0.73490   0.67750   0.00000  Uiso   1.00
C92    C     0.23290   0.72260   0.57200   0.00000  Uiso   1.00
C93    C     0.55780   0.52420   0.48190   0.00000  Uiso   1.00
C94    C     0.06170   0.98660   0.47580   0.00000  Uiso   1.00
H95    H     0.89300   0.81800   0.38500   0.00000  Uiso   1.00
H96    H     0.80900   0.81400   0.47100   0.00000  Uiso   1.00
Tb97   Tb    0.00465   0.12189   0.84159   0.00000  Uiso   1.00
Tb98   Tb    0.51903   0.33642   0.91219   0.00000  Uiso   1.00
O99    O     0.89010   0.99920   0.79960   0.00000  Uiso   1.00
O100   O     0.91880   0.88290   0.73690   0.00000  Uiso   1.00
O101   O     0.12580   0.04700   0.73990   0.00000  Uiso   1.00
O102   O     0.13700   0.93620   0.66360   0.00000  Uiso   1.00
O103   O     0.75590   0.13390   0.83960   0.00000  Uiso   1.00
O104   O     0.58840   0.20800   0.88220   0.00000  Uiso   1.00
O105   O     0.93500   0.25030   0.87220   0.00000  Uiso   1.00
O106   O     0.76370   0.32640   0.90740   0.00000  Uiso   1.00
O107   O     0.34970   0.27990   0.79700   0.00000  Uiso   1.00
O108   O     0.16780   0.20030   0.77290   0.00000  Uiso   1.00
O109   O     0.35320   0.26150   0.97830   0.00000  Uiso   1.00
O110   O     0.18300   0.17380   0.95330   0.00000  Uiso   1.00
O111   O     0.92750   0.09120   0.98880   0.00000  Uiso   1.00
O112   O     0.87410   0.99050   0.07390   0.00000  Uiso   1.00
O113   O     0.41360   0.41560   0.02350   0.00000  Uiso   1.00
O114   O     0.37130   0.53790   0.05870   0.00000  Uiso   1.00
O115   O     0.90120   0.16130   0.68710   0.00000  Uiso   1.00
H116   H     0.90490   0.12380   0.64900   0.00000  Uiso   1.00
H117   H     0.81670   0.17400   0.68850   0.00000  Uiso   1.00
O118   O     0.63100   0.30510   0.06430   0.00000  Uiso   1.00
C119   C     0.95230   0.95120   0.75460   0.00000  Uiso   1.00
C120   C     0.08280   0.98150   0.71660   0.00000  Uiso   1.00
C121   C     0.70950   0.19510   0.86670   0.00000  Uiso   1.00
C122   C     0.81290   0.26440   0.88360   0.00000  Uiso   1.00
C123   C     0.26020   0.23490   0.82250   0.00000  Uiso   1.00
C124   C     0.26710   0.22260   0.92800   0.00000  Uiso   1.00
C125   C     0.94220   0.02420   0.01810   0.00000  Uiso   1.00
C126   C     0.43830   0.48660   0.02420   0.00000  Uiso   1.00
H127   H     0.60700   0.31800   0.11500   0.00000  Uiso   1.00
H128   H     0.69100   0.31400   0.02900   0.00000  Uiso   1.00
loop_
_geom_bond_atom_site_label_1
_geom_bond_atom_site_label_2
_geom_bond_distance
_geom_bond_site_symmetry_2
_ccdc_geom_bond_type
Tb1    O3      2.443   .     S
Tb1    O5      2.393   .     S
Tb1    O7      2.441   .     S
Tb1    O9      2.382   .     S
Tb1    O15     2.423   .     S
Tb1    O19     2.451   .     S
Tb1    O80     2.519   .     S
Tb1    O12     2.407   .     S
Tb1    O14     2.410   .     S
Tb2    O8      2.379   .     S
Tb2    O10     2.411   .     S
Tb2    O11     2.416   1_455 S
Tb2    O13     2.374   1_455 S
Tb2    O17     2.449   1_455 S
Tb2    O22     2.412   .     S
Tb2    O82     2.439   .     S
Tb2    O36     2.466   .     S
Tb2    O38     2.473   1_455 S
O3     C23     1.261   .     S
O4     C23     1.245   .     S
O4     Tb34    2.466   .     S
O5     C24     1.241   .     S
O6     C24     1.263   .     S
O6     Tb34    2.473   .     S
O7     C25     1.236   .     S
O8     C25     1.254   .     S
O9     C26     1.251   .     S
O10    C26     1.243   .     S
O11    Tb2     2.416   1_655 S
O11    C27     1.262   .     S
O12    C27     1.240   .     S
O13    Tb2     2.374   1_655 S
O13    C28     1.244   .     S
O14    C28     1.266   .     S
O15    C29     1.238   .     S
O16    C29     1.258   .     S
O16    Tb65    2.519   .     S
O17    Tb2     2.449   1_655 S
O17    C30     1.252   .     S
O18    C30     1.246   1_565 S
O18    Tb66    2.439   .     S
O19    H20     0.858   .     S
O19    H21     0.859   .     S
O22    H31     0.834   .     S
O22    H32     0.842   .     S
C23    C24     1.546   .     S
C25    C26     1.569   .     S
C27    C28     1.547   .     S
C29    C93     1.552   .     S
C30    O18     1.246   1_545 S
C30    C94     1.544   1_645 S
Tb33   O35     2.443   1_665 S
Tb33   O37     2.393   .     S
Tb33   O39     2.441   1_655 S
Tb33   O41     2.382   1_655 S
Tb33   O47     2.423   1_655 S
Tb33   O51     2.451   1_655 S
Tb33   O112    2.519   .     S
Tb33   O44     2.407   .     S
Tb33   O46     2.410   .     S
Tb34   O40     2.379   .     S
Tb34   O42     2.411   .     S
Tb34   O43     2.416   .     S
Tb34   O45     2.374   .     S
Tb34   O49     2.449   1_554 S
Tb34   O54     2.412   1_554 S
Tb34   O114    2.439   .     S
O35    Tb33    2.443   1_445 S
O35    C55     1.261   .     S
O36    C55     1.245   .     S
O37    C56     1.241   1_565 S
O38    C56     1.263   .     S
O38    Tb2     2.473   1_655 S
O39    Tb33    2.441   1_455 S
O39    C57     1.236   .     S
O40    C57     1.254   .     S
O41    Tb33    2.382   1_455 S
O41    C58     1.251   .     S
O42    C58     1.243   .     S
O43    C59     1.262   .     S
O44    C59     1.240   .     S
O45    C60     1.244   .     S
O46    C60     1.266   .     S
O47    Tb33    2.423   1_455 S
O47    C61     1.238   1_554 S
O48    C61     1.258   1_545 S
O48    Tb97    2.519   .     S
O49    Tb34    2.449   1_556 S
O49    C62     1.252   .     S
O50    C62     1.246   .     S
O50    Tb98    2.439   .     S
O51    Tb33    2.451   1_455 S
O51    H52     0.858   .     S
O51    H53     0.859   .     S
O54    Tb34    2.412   1_556 S
O54    H63     0.834   .     S
O54    H64     0.842   .     S
C55    C56     1.546   1_455 S
C56    C55     1.546   1_655 S
C56    O37     1.241   1_545 S
C57    C58     1.569   .     S
C59    C60     1.547   .     S
C61    O48     1.258   1_565 S
C61    O47     1.238   1_556 S
C61    C125    1.552   1_466 S
C62    C126    1.544   1_556 S
Tb65   O67     2.443   .     S
Tb65   O69     2.393   .     S
Tb65   O71     2.441   .     S
Tb65   O73     2.382   .     S
Tb65   O79     2.423   .     S
Tb65   O83     2.451   .     S
Tb65   O76     2.407   .     S
Tb65   O78     2.410   .     S
Tb66   O72     2.379   .     S
Tb66   O74     2.411   .     S
Tb66   O75     2.416   1_655 S
Tb66   O77     2.374   1_655 S
Tb66   O81     2.449   1_655 S
Tb66   O86     2.412   .     S
Tb66   O100    2.466   .     S
Tb66   O102    2.473   1_655 S
O67    C87     1.261   .     S
O68    C87     1.245   .     S
O68    Tb98    2.466   .     S
O69    C88     1.241   .     S
O70    C88     1.263   .     S
O70    Tb98    2.473   .     S
O71    C89     1.236   .     S
O72    C89     1.254   .     S
O73    C90     1.251   .     S
O74    C90     1.243   .     S
O75    Tb66    2.416   1_455 S
O75    C91     1.262   .     S
O76    C91     1.240   .     S
O77    Tb66    2.374   1_455 S
O77    C92     1.244   .     S
O78    C92     1.266   .     S
O79    C93     1.238   .     S
O80    C93     1.258   .     S
O81    Tb66    2.449   1_455 S
O81    C94     1.252   .     S
O82    C94     1.246   1_545 S
O83    H84     0.858   .     S
O83    H85     0.859   .     S
O86    H95     0.834   .     S
O86    H96     0.842   .     S
C87    C88     1.546   .     S
C89    C90     1.569   .     S
C91    C92     1.547   .     S
C94    O82     1.246   1_565 S
C94    C30     1.544   1_465 S
Tb97   O99     2.443   1_445 S
Tb97   O101    2.393   .     S
Tb97   O103    2.441   1_455 S
Tb97   O105    2.382   1_455 S
Tb97   O111    2.423   1_455 S
Tb97   O115    2.451   1_455 S
Tb97   O108    2.407   .     S
Tb97   O110    2.410   .     S
Tb98   O104    2.379   .     S
Tb98   O106    2.411   .     S
Tb98   O107    2.416   .     S
Tb98   O109    2.374   .     S
Tb98   O113    2.449   1_556 S
Tb98   O118    2.412   1_556 S
O99    Tb97    2.443   1_665 S
O99    C119    1.261   .     S
O100   C119    1.245   .     S
O101   C120    1.241   1_545 S
O102   C120    1.263   .     S
O102   Tb66    2.473   1_455 S
O103   Tb97    2.441   1_655 S
O103   C121    1.236   .     S
O104   C121    1.254   .     S
O105   Tb97    2.382   1_655 S
O105   C122    1.251   .     S
O106   C122    1.243   .     S
O107   C123    1.262   .     S
O108   C123    1.240   .     S
O109   C124    1.244   .     S
O110   C124    1.266   .     S
O111   Tb97    2.423   1_655 S
O111   C125    1.238   1_556 S
O112   C125    1.258   1_565 S
O113   Tb98    2.449   1_554 S
O113   C126    1.252   .     S
O114   C126    1.246   .     S
O115   Tb97    2.451   1_655 S
O115   H116    0.858   .     S
O115   H117    0.859   .     S
O118   Tb98    2.412   1_554 S
O118   H127    0.834   .     S
O118   H128    0.842   .     S
C119   C120    1.546   1_655 S
C120   C119    1.546   1_455 S
C120   O101    1.241   1_565 S
C121   C122    1.569   .     S
C123   C124    1.547   .     S
C125   O112    1.258   1_545 S
C125   O111    1.238   1_554 S
C125   C61     1.552   1_644 S
C126   C62     1.544   1_554 S
