data_HASNUN_FSR
_audit_creation_date              2024-06-11
_audit_creation_method            'Materials Studio'
_symmetry_space_group_name_H-M    'P1'
_symmetry_Int_Tables_number       1
_symmetry_cell_setting            triclinic
loop_
_symmetry_equiv_pos_as_xyz
  x,y,z
_cell_length_a                    10.0532
_cell_length_b                    17.7273
_cell_length_c                    14.4451
_cell_angle_alpha                 90.0000
_cell_angle_beta                  99.1201
_cell_angle_gamma                 90.0000
loop_
_atom_site_label
_atom_site_type_symbol
_atom_site_fract_x
_atom_site_fract_y
_atom_site_fract_z
_atom_site_U_iso_or_equiv
_atom_site_adp_type
_atom_site_occupancy
Eu1    Eu    0.49671   0.12472   0.15635   0.00000  Uiso   1.00
Eu2    Eu    0.51861   0.84091   0.40800   0.00000  Uiso   1.00
O3     O     0.36990   0.93820   0.32710   0.00000  Uiso   1.00
O4     O     0.58220   0.88860   0.25950   0.00000  Uiso   1.00
O5     O     0.61470   0.00380   0.20210   0.00000  Uiso   1.00
O6     O     0.38940   0.05100   0.26260   0.00000  Uiso   1.00
C7     C     0.55320   0.95690   0.24300   0.00000  Uiso   1.00
C8     C     0.42510   0.98490   0.28050   0.00000  Uiso   1.00
O9     O     0.74040   0.14250   0.16040   0.00000  Uiso   1.00
O10    O     0.56490   0.25470   0.12380   0.00000  Uiso   1.00
O11    O     0.31340   0.18080   0.04490   0.00000  Uiso   1.00
O12    O     0.33620   0.20210   0.22860   0.00000  Uiso   1.00
O13    O     0.60720   0.16270   0.31520   0.00000  Uiso   1.00
H14    H     0.65060   0.20370   0.31170   0.00000  Uiso   1.00
H15    H     0.66160   0.12820   0.33840   0.00000  Uiso   1.00
O16    O     0.57300   0.08920   0.00930   0.00000  Uiso   1.00
O17    O     0.41760   0.91650   0.52120   0.00000  Uiso   1.00
O18    O     0.14230   0.26340   0.02260   0.00000  Uiso   1.00
O19    O     0.90510   0.21680   0.12590   0.00000  Uiso   1.00
O20    O     0.62100   0.98730   0.92830   0.00000  Uiso   1.00
O21    O     0.15870   0.28060   0.20640   0.00000  Uiso   1.00
O22    O     0.73340   0.32940   0.09380   0.00000  Uiso   1.00
C23    C     0.24310   0.23700   0.17920   0.00000  Uiso   1.00
C24    C     0.78520   0.20300   0.13570   0.00000  Uiso   1.00
C25    C     0.55740   0.02210   0.98180   0.00000  Uiso   1.00
C26    C     0.23150   0.22650   0.07270   0.00000  Uiso   1.00
C27    C     0.68460   0.26820   0.11610   0.00000  Uiso   1.00
C28    C     0.43880   0.98580   0.52200   0.00000  Uiso   1.00
O29    O     0.37410   0.03570   0.55760   0.00000  Uiso   1.00
O30    O     0.63860   0.81030   0.56440   0.00000  Uiso   1.00
H31    H     0.69320   0.77270   0.56140   0.00000  Uiso   1.00
H32    H     0.65400   0.83700   0.62600   0.00000  Uiso   1.00
Eu33   Eu    0.00329   0.62472   0.34365   0.00000  Uiso   1.00
Eu34   Eu    0.98139   0.34091   0.09200   0.00000  Uiso   1.00
O35    O     0.13010   0.43820   0.17290   0.00000  Uiso   1.00
O36    O     0.91780   0.38860   0.24050   0.00000  Uiso   1.00
O37    O     0.88530   0.50380   0.29790   0.00000  Uiso   1.00
O38    O     0.11060   0.55100   0.23740   0.00000  Uiso   1.00
C39    C     0.94680   0.45690   0.25700   0.00000  Uiso   1.00
C40    C     0.07490   0.48490   0.21950   0.00000  Uiso   1.00
O41    O     0.75960   0.64250   0.33960   0.00000  Uiso   1.00
O42    O     0.93510   0.75470   0.37620   0.00000  Uiso   1.00
O43    O     0.18660   0.68080   0.45510   0.00000  Uiso   1.00
O44    O     0.16380   0.70210   0.27140   0.00000  Uiso   1.00
O45    O     0.89280   0.66270   0.18480   0.00000  Uiso   1.00
H46    H     0.84940   0.70370   0.18830   0.00000  Uiso   1.00
H47    H     0.83840   0.62820   0.16160   0.00000  Uiso   1.00
O48    O     0.92700   0.58920   0.49070   0.00000  Uiso   1.00
O49    O     0.08240   0.41650   0.97880   0.00000  Uiso   1.00
O50    O     0.35770   0.76340   0.47740   0.00000  Uiso   1.00
O51    O     0.59490   0.71680   0.37410   0.00000  Uiso   1.00
O52    O     0.87900   0.48730   0.57170   0.00000  Uiso   1.00
O53    O     0.34130   0.78060   0.29360   0.00000  Uiso   1.00
O54    O     0.76660   0.82940   0.40620   0.00000  Uiso   1.00
C55    C     0.25690   0.73700   0.32080   0.00000  Uiso   1.00
C56    C     0.71480   0.70300   0.36430   0.00000  Uiso   1.00
C57    C     0.94260   0.52210   0.51820   0.00000  Uiso   1.00
C58    C     0.26850   0.72650   0.42730   0.00000  Uiso   1.00
C59    C     0.81540   0.76820   0.38390   0.00000  Uiso   1.00
C60    C     0.06120   0.48580   0.97800   0.00000  Uiso   1.00
O61    O     0.12590   0.53570   0.94240   0.00000  Uiso   1.00
O62    O     0.86140   0.31030   0.93560   0.00000  Uiso   1.00
H63    H     0.80680   0.27270   0.93860   0.00000  Uiso   1.00
H64    H     0.84600   0.33700   0.87400   0.00000  Uiso   1.00
Eu65   Eu    0.50329   0.87528   0.84365   0.00000  Uiso   1.00
Eu66   Eu    0.48139   0.15909   0.59200   0.00000  Uiso   1.00
O67    O     0.63010   0.06180   0.67290   0.00000  Uiso   1.00
O68    O     0.41780   0.11140   0.74050   0.00000  Uiso   1.00
O69    O     0.38530   0.99620   0.79790   0.00000  Uiso   1.00
O70    O     0.61060   0.94900   0.73740   0.00000  Uiso   1.00
C71    C     0.44680   0.04310   0.75700   0.00000  Uiso   1.00
C72    C     0.57490   0.01510   0.71950   0.00000  Uiso   1.00
O73    O     0.25960   0.85750   0.83960   0.00000  Uiso   1.00
O74    O     0.43510   0.74530   0.87620   0.00000  Uiso   1.00
O75    O     0.68660   0.81920   0.95510   0.00000  Uiso   1.00
O76    O     0.66380   0.79790   0.77140   0.00000  Uiso   1.00
O77    O     0.39280   0.83730   0.68480   0.00000  Uiso   1.00
H78    H     0.34940   0.79630   0.68830   0.00000  Uiso   1.00
H79    H     0.33840   0.87180   0.66160   0.00000  Uiso   1.00
O80    O     0.42700   0.91080   0.99070   0.00000  Uiso   1.00
O81    O     0.58240   0.08350   0.47880   0.00000  Uiso   1.00
O82    O     0.85770   0.73660   0.97740   0.00000  Uiso   1.00
O83    O     0.09490   0.78320   0.87410   0.00000  Uiso   1.00
O84    O     0.37900   0.01270   0.07170   0.00000  Uiso   1.00
O85    O     0.84130   0.71940   0.79360   0.00000  Uiso   1.00
O86    O     0.26660   0.67060   0.90620   0.00000  Uiso   1.00
C87    C     0.75690   0.76300   0.82080   0.00000  Uiso   1.00
C88    C     0.21480   0.79700   0.86430   0.00000  Uiso   1.00
C89    C     0.44260   0.97790   0.01820   0.00000  Uiso   1.00
C90    C     0.76850   0.77350   0.92730   0.00000  Uiso   1.00
C91    C     0.31540   0.73180   0.88390   0.00000  Uiso   1.00
C92    C     0.56120   0.01420   0.47800   0.00000  Uiso   1.00
O93    O     0.62590   0.96430   0.44240   0.00000  Uiso   1.00
O94    O     0.36140   0.18970   0.43560   0.00000  Uiso   1.00
H95    H     0.30680   0.22730   0.43860   0.00000  Uiso   1.00
H96    H     0.34600   0.16300   0.37400   0.00000  Uiso   1.00
Eu97   Eu    0.99671   0.37528   0.65635   0.00000  Uiso   1.00
Eu98   Eu    0.01861   0.65909   0.90800   0.00000  Uiso   1.00
O99    O     0.86990   0.56180   0.82710   0.00000  Uiso   1.00
O100   O     0.08220   0.61140   0.75950   0.00000  Uiso   1.00
O101   O     0.11470   0.49620   0.70210   0.00000  Uiso   1.00
O102   O     0.88940   0.44900   0.76260   0.00000  Uiso   1.00
C103   C     0.05320   0.54310   0.74300   0.00000  Uiso   1.00
C104   C     0.92510   0.51510   0.78050   0.00000  Uiso   1.00
O105   O     0.24040   0.35750   0.66040   0.00000  Uiso   1.00
O106   O     0.06490   0.24530   0.62380   0.00000  Uiso   1.00
O107   O     0.81340   0.31920   0.54490   0.00000  Uiso   1.00
O108   O     0.83620   0.29790   0.72860   0.00000  Uiso   1.00
O109   O     0.10720   0.33730   0.81520   0.00000  Uiso   1.00
H110   H     0.15060   0.29630   0.81170   0.00000  Uiso   1.00
H111   H     0.16160   0.37180   0.83840   0.00000  Uiso   1.00
O112   O     0.07300   0.41080   0.50930   0.00000  Uiso   1.00
O113   O     0.91760   0.58350   0.02120   0.00000  Uiso   1.00
O114   O     0.64230   0.23660   0.52260   0.00000  Uiso   1.00
O115   O     0.40510   0.28320   0.62590   0.00000  Uiso   1.00
O116   O     0.12100   0.51270   0.42830   0.00000  Uiso   1.00
O117   O     0.65870   0.21940   0.70640   0.00000  Uiso   1.00
O118   O     0.23340   0.17060   0.59380   0.00000  Uiso   1.00
C119   C     0.74310   0.26300   0.67920   0.00000  Uiso   1.00
C120   C     0.28520   0.29700   0.63570   0.00000  Uiso   1.00
C121   C     0.05740   0.47790   0.48180   0.00000  Uiso   1.00
C122   C     0.73150   0.27350   0.57270   0.00000  Uiso   1.00
C123   C     0.18460   0.23180   0.61610   0.00000  Uiso   1.00
C124   C     0.93880   0.51420   0.02200   0.00000  Uiso   1.00
O125   O     0.87410   0.46430   0.05760   0.00000  Uiso   1.00
O126   O     0.13860   0.68970   0.06440   0.00000  Uiso   1.00
H127   H     0.19320   0.72730   0.06140   0.00000  Uiso   1.00
H128   H     0.15400   0.66300   0.12600   0.00000  Uiso   1.00
loop_
_geom_bond_atom_site_label_1
_geom_bond_atom_site_label_2
_geom_bond_distance
_geom_bond_site_symmetry_2
_ccdc_geom_bond_type
Eu1    O5      2.488   .     S
Eu1    O6      2.398   .     S
Eu1    O9      2.462   .     S
Eu1    O10     2.470   .     S
Eu1    O11     2.457   .     S
Eu1    O12     2.472   .     S
Eu1    O13     2.479   .     S
Eu1    O16     2.452   .     S
Eu1    O84     2.526   .     S
Eu2    O3      2.454   .     S
Eu2    O4      2.482   .     S
Eu2    O17     2.455   .     S
Eu2    O30     2.447   .     S
Eu2    O93     2.455   .     S
Eu2    O50     2.454   .     S
Eu2    O51     2.406   .     S
Eu2    O53     2.473   .     S
Eu2    O54     2.506   .     S
O3     C8      1.251   .     S
O4     C7      1.259   .     S
O5     C7      1.240   1_545 S
O6     C8      1.241   1_545 S
C7     O5      1.240   1_565 S
C7     C8      1.555   .     S
C8     O6      1.241   1_565 S
O9     C24     1.237   .     S
O10    C27     1.249   .     S
O11    C26     1.265   .     S
O12    C23     1.247   .     S
O13    H14     0.853   .     S
O13    H15     0.853   .     S
O16    C25     1.256   1_554 S
O17    C28     1.247   .     S
O18    C26     1.245   .     S
O18    Eu34    2.454   1_455 S
O19    C24     1.260   .     S
O19    Eu34    2.406   .     S
O20    C25     1.242   1_565 S
O20    Eu65    2.526   .     S
O21    C23     1.256   .     S
O21    Eu34    2.473   1_455 S
O22    C27     1.254   .     S
O22    Eu34    2.506   .     S
C23    C26     1.536   .     S
C24    C27     1.532   .     S
C25    O20     1.242   1_545 S
C25    O16     1.256   1_556 S
C25    C89     1.554   1_546 S
C28    O29     1.255   1_565 S
C28    C92     1.555   1_565 S
O29    C28     1.255   1_545 S
O29    Eu66    2.455   .     S
O30    H31     0.869   .     S
O30    H32     0.998   .     S
Eu33   O37     2.488   1_455 S
Eu33   O38     2.398   .     S
Eu33   O41     2.462   1_455 S
Eu33   O42     2.470   1_455 S
Eu33   O43     2.457   .     S
Eu33   O44     2.472   .     S
Eu33   O45     2.479   1_455 S
Eu33   O48     2.452   1_455 S
Eu33   O116    2.526   .     S
Eu34   O35     2.454   1_655 S
Eu34   O36     2.482   .     S
Eu34   O49     2.455   1_654 S
Eu34   O62     2.447   1_554 S
Eu34   O125    2.455   .     S
Eu34   O18     2.454   1_655 S
Eu34   O21     2.473   1_655 S
O35    Eu34    2.454   1_455 S
O35    C40     1.251   .     S
O36    C39     1.259   .     S
O37    Eu33    2.488   1_655 S
O37    C39     1.240   .     S
O38    C40     1.241   .     S
C39    C40     1.555   1_655 S
C40    C39     1.555   1_455 S
O41    Eu33    2.462   1_655 S
O41    C56     1.237   .     S
O42    Eu33    2.470   1_655 S
O42    C59     1.249   .     S
O43    C58     1.265   .     S
O44    C55     1.247   .     S
O45    Eu33    2.479   1_655 S
O45    H46     0.853   .     S
O45    H47     0.853   .     S
O48    Eu33    2.452   1_655 S
O48    C57     1.256   .     S
O49    Eu34    2.455   1_456 S
O49    C60     1.247   .     S
O50    C58     1.245   .     S
O51    C56     1.260   .     S
O52    C57     1.242   .     S
O52    Eu97    2.526   .     S
O53    C55     1.256   .     S
O54    C59     1.254   .     S
C55    C58     1.536   .     S
C56    C59     1.532   .     S
C57    C121    1.554   1_655 S
C60    O61     1.255   .     S
C60    C124    1.555   1_456 S
O61    Eu98    2.455   .     S
O62    Eu34    2.447   1_556 S
O62    H63     0.869   .     S
O62    H64     0.998   .     S
Eu65   O69     2.488   .     S
Eu65   O70     2.398   .     S
Eu65   O73     2.462   .     S
Eu65   O74     2.470   .     S
Eu65   O75     2.457   .     S
Eu65   O76     2.472   .     S
Eu65   O77     2.479   .     S
Eu65   O80     2.452   .     S
Eu66   O67     2.454   .     S
Eu66   O68     2.482   .     S
Eu66   O81     2.455   .     S
Eu66   O94     2.447   .     S
Eu66   O114    2.454   .     S
Eu66   O115    2.406   .     S
Eu66   O117    2.473   .     S
Eu66   O118    2.506   .     S
O67    C72     1.251   .     S
O68    C71     1.259   .     S
O69    C71     1.240   1_565 S
O70    C72     1.241   1_565 S
C71    O69     1.240   1_545 S
C71    C72     1.555   .     S
C72    O70     1.241   1_545 S
O73    C88     1.237   .     S
O74    C91     1.249   .     S
O75    C90     1.265   .     S
O76    C87     1.247   .     S
O77    H78     0.853   .     S
O77    H79     0.853   .     S
O80    C89     1.256   1_556 S
O81    C92     1.247   .     S
O82    C90     1.245   .     S
O82    Eu98    2.454   1_655 S
O83    C88     1.260   .     S
O83    Eu98    2.406   .     S
O84    C89     1.242   1_545 S
O85    C87     1.256   .     S
O85    Eu98    2.473   1_655 S
O86    C91     1.254   .     S
O86    Eu98    2.506   .     S
C87    C90     1.536   .     S
C88    C91     1.532   .     S
C89    O84     1.242   1_565 S
C89    O80     1.256   1_554 S
C89    C25     1.554   1_564 S
C92    O93     1.255   1_545 S
C92    C28     1.555   1_545 S
O93    C92     1.255   1_565 S
O94    H95     0.869   .     S
O94    H96     0.998   .     S
Eu97   O101    2.488   1_655 S
Eu97   O102    2.398   .     S
Eu97   O105    2.462   1_655 S
Eu97   O106    2.470   1_655 S
Eu97   O107    2.457   .     S
Eu97   O108    2.472   .     S
Eu97   O109    2.479   1_655 S
Eu97   O112    2.452   1_655 S
Eu98   O99     2.454   1_455 S
Eu98   O100    2.482   .     S
Eu98   O113    2.455   1_456 S
Eu98   O126    2.447   1_556 S
Eu98   O82     2.454   1_455 S
Eu98   O85     2.473   1_455 S
O99    Eu98    2.454   1_655 S
O99    C104    1.251   .     S
O100   C103    1.259   .     S
O101   Eu97    2.488   1_455 S
O101   C103    1.240   .     S
O102   C104    1.241   .     S
C103   C104    1.555   1_455 S
C104   C103    1.555   1_655 S
O105   Eu97    2.462   1_455 S
O105   C120    1.237   .     S
O106   Eu97    2.470   1_455 S
O106   C123    1.249   .     S
O107   C122    1.265   .     S
O108   C119    1.247   .     S
O109   Eu97    2.479   1_455 S
O109   H110    0.853   .     S
O109   H111    0.853   .     S
O112   Eu97    2.452   1_455 S
O112   C121    1.256   .     S
O113   Eu98    2.455   1_654 S
O113   C124    1.247   .     S
O114   C122    1.245   .     S
O115   C120    1.260   .     S
O116   C121    1.242   .     S
O117   C119    1.256   .     S
O118   C123    1.254   .     S
C119   C122    1.536   .     S
C120   C123    1.532   .     S
C121   C57     1.554   1_455 S
C124   O125    1.255   .     S
C124   C60     1.555   1_654 S
O126   Eu98    2.447   1_554 S
O126   H127    0.869   .     S
O126   H128    0.998   .     S
