data_HAWGUL_FSR
_audit_creation_date              2024-06-11
_audit_creation_method            'Materials Studio'
_symmetry_space_group_name_H-M    'P1'
_symmetry_Int_Tables_number       1
_symmetry_cell_setting            triclinic
loop_
_symmetry_equiv_pos_as_xyz
  x,y,z
_cell_length_a                    8.9744
_cell_length_b                    11.0999
_cell_length_c                    11.1627
_cell_angle_alpha                 79.8420
_cell_angle_beta                  84.4110
_cell_angle_gamma                 80.1440
loop_
_atom_site_label
_atom_site_type_symbol
_atom_site_fract_x
_atom_site_fract_y
_atom_site_fract_z
_atom_site_U_iso_or_equiv
_atom_site_adp_type
_atom_site_occupancy
Ni1    Ni    0.80432   0.05353   0.27469   0.00000  Uiso   1.00
Ni2    Ni    0.01527   0.86053   0.48972   0.00000  Uiso   1.00
O3     O     0.87170   0.02098   0.44373   0.00000  Uiso   1.00
H4     H     0.77790   0.01404   0.49907   0.00000  Uiso   1.00
O5     O     0.79140   0.24245   0.26610   0.00000  Uiso   1.00
O6     O     0.83750   0.29305   0.44389   0.00000  Uiso   1.00
O7     O     0.02870   0.02986   0.19670   0.00000  Uiso   1.00
O8     O     0.52860   0.64009   0.04364   0.00000  Uiso   1.00
O9     O     0.15130   0.87470   0.32707   0.00000  Uiso   1.00
O10    O     0.89630   0.74460   0.42430   0.00000  Uiso   1.00
O11    O     0.80720   0.87398   0.26079   0.00000  Uiso   1.00
N12    N     0.27510   0.90050   0.90120   0.00000  Uiso   1.00
O13    O     0.87440   0.83300   0.65130   0.00000  Uiso   1.00
H14    H     0.90782   0.86399   0.70822   0.00000  Uiso   1.00
H15    H     0.78424   0.87623   0.63996   0.00000  Uiso   1.00
O16    O     0.57790   0.06400   0.34430   0.00000  Uiso   1.00
H17    H     0.52439   0.11909   0.39137   0.00000  Uiso   1.00
H18    H     0.54099   0.07353   0.26764   0.00000  Uiso   1.00
C19    C     0.38710   0.80380   0.92080   0.00000  Uiso   1.00
H20    H     0.44513   0.77483   0.85282   0.00000  Uiso   1.00
C21    C     0.42050   0.74480   0.03750   0.00000  Uiso   1.00
C22    C     0.12760   0.93460   0.22240   0.00000  Uiso   1.00
C23    C     0.67470   0.70200   0.18690   0.00000  Uiso   1.00
H24    H     0.64898   0.78666   0.15185   0.00000  Uiso   1.00
C25    C     0.79710   0.31780   0.33630   0.00000  Uiso   1.00
C26    C     0.22560   0.88890   0.11780   0.00000  Uiso   1.00
C27    C     0.19970   0.94400   0.99780   0.00000  Uiso   1.00
H28    H     0.12499   0.01588   0.98416   0.00000  Uiso   1.00
C29    C     0.61880   0.61130   0.14280   0.00000  Uiso   1.00
C30    C     0.82940   0.76990   0.32760   0.00000  Uiso   1.00
C31    C     0.80650   0.54410   0.33350   0.00000  Uiso   1.00
H32    H     0.86892   0.52096   0.40045   0.00000  Uiso   1.00
C33    C     0.76910   0.66850   0.28330   0.00000  Uiso   1.00
C34    C     0.75220   0.45380   0.28570   0.00000  Uiso   1.00
C35    C     0.33720   0.78480   0.13740   0.00000  Uiso   1.00
H36    H     0.35542   0.74250   0.21756   0.00000  Uiso   1.00
C37    C     0.65800   0.48750   0.18910   0.00000  Uiso   1.00
H38    H     0.62136   0.42603   0.15579   0.00000  Uiso   1.00
Ni39   Ni    0.19568   0.94647   0.72531   0.00000  Uiso   1.00
Ni40   Ni    0.98473   0.13947   0.51028   0.00000  Uiso   1.00
O41    O     0.12830   0.97902   0.55627   0.00000  Uiso   1.00
H42    H     0.22210   0.98596   0.50093   0.00000  Uiso   1.00
O43    O     0.20860   0.75755   0.73390   0.00000  Uiso   1.00
O44    O     0.16250   0.70695   0.55611   0.00000  Uiso   1.00
O45    O     0.97130   0.97014   0.80330   0.00000  Uiso   1.00
O46    O     0.47140   0.35991   0.95636   0.00000  Uiso   1.00
O47    O     0.84870   0.12530   0.67293   0.00000  Uiso   1.00
O48    O     0.10370   0.25540   0.57570   0.00000  Uiso   1.00
O49    O     0.19280   0.12602   0.73921   0.00000  Uiso   1.00
N50    N     0.72490   0.09950   0.09880   0.00000  Uiso   1.00
O51    O     0.12560   0.16700   0.34870   0.00000  Uiso   1.00
H52    H     0.09218   0.13601   0.29178   0.00000  Uiso   1.00
H53    H     0.21576   0.12377   0.36004   0.00000  Uiso   1.00
O54    O     0.42210   0.93600   0.65570   0.00000  Uiso   1.00
H55    H     0.47561   0.88091   0.60863   0.00000  Uiso   1.00
H56    H     0.45901   0.92647   0.73236   0.00000  Uiso   1.00
C57    C     0.61290   0.19620   0.07920   0.00000  Uiso   1.00
H58    H     0.55487   0.22517   0.14718   0.00000  Uiso   1.00
C59    C     0.57950   0.25520   0.96250   0.00000  Uiso   1.00
C60    C     0.87240   0.06540   0.77760   0.00000  Uiso   1.00
C61    C     0.32530   0.29800   0.81310   0.00000  Uiso   1.00
H62    H     0.35102   0.21334   0.84815   0.00000  Uiso   1.00
C63    C     0.20290   0.68220   0.66370   0.00000  Uiso   1.00
C64    C     0.77440   0.11110   0.88220   0.00000  Uiso   1.00
C65    C     0.80030   0.05600   0.00220   0.00000  Uiso   1.00
H66    H     0.87501   0.98412   0.01584   0.00000  Uiso   1.00
C67    C     0.38120   0.38870   0.85720   0.00000  Uiso   1.00
C68    C     0.17060   0.23010   0.67240   0.00000  Uiso   1.00
C69    C     0.19350   0.45590   0.66650   0.00000  Uiso   1.00
H70    H     0.13108   0.47904   0.59955   0.00000  Uiso   1.00
C71    C     0.23090   0.33150   0.71670   0.00000  Uiso   1.00
C72    C     0.24780   0.54620   0.71430   0.00000  Uiso   1.00
C73    C     0.66280   0.21520   0.86260   0.00000  Uiso   1.00
H74    H     0.64458   0.25750   0.78244   0.00000  Uiso   1.00
C75    C     0.34200   0.51250   0.81090   0.00000  Uiso   1.00
H76    H     0.37864   0.57397   0.84421   0.00000  Uiso   1.00
loop_
_geom_bond_atom_site_label_1
_geom_bond_atom_site_label_2
_geom_bond_distance
_geom_bond_site_symmetry_2
_ccdc_geom_bond_type
Ni1    O3      1.991   .     S
Ni1    O11     2.022   1_545 S
Ni1    O16     2.095   .     S
Ni1    O5      2.066   .     S
Ni1    O7      2.107   1_655 S
Ni1    N50     2.102   .     S
Ni2    O3      2.029   1_465 S
Ni2    O10     2.069   1_455 S
Ni2    O13     2.107   1_455 S
Ni2    O41     2.064   .     S
Ni2    O44     2.043   .     S
Ni2    O9      2.084   .     S
O3     Ni2     2.029   1_645 S
O3     H4      1.000   .     S
O3     Ni40    2.064   .     S
O5     C25     1.253   .     S
O6     C25     1.258   .     S
O6     Ni40    2.043   .     S
O7     C22     1.269   1_545 S
O7     Ni1     2.107   1_455 S
O8     C21     1.377   .     S
O8     C29     1.394   .     S
O9     C22     1.256   .     S
O10    Ni2     2.069   1_655 S
O10    C30     1.251   .     S
O11    Ni1     2.022   1_565 S
O11    C30     1.256   .     S
N12    C19     1.342   .     S
N12    C27     1.335   .     S
N12    Ni39    2.102   .     S
O13    Ni2     2.107   1_655 S
O13    H14     0.873   .     S
O13    H15     0.876   .     S
O16    H17     0.919   .     S
O16    H18     0.930   .     S
C19    H20     0.950   .     S
C19    C21     1.387   1_556 S
C21    C19     1.387   1_554 S
C21    C35     1.378   .     S
C22    O7      1.269   1_565 S
C22    C26     1.500   .     S
C23    H24     0.950   .     S
C23    C33     1.394   .     S
C23    C29     1.380   .     S
C25    C34     1.515   .     S
C26    C27     1.395   1_554 S
C26    C35     1.394   .     S
C27    C26     1.395   1_556 S
C27    H28     0.950   1_565 S
H28    C27     0.950   1_545 S
C29    C37     1.378   .     S
C30    C33     1.504   .     S
C31    H32     0.950   .     S
C31    C34     1.390   .     S
C31    C33     1.392   .     S
C34    C37     1.394   .     S
C35    H36     0.950   .     S
C37    H38     0.950   .     S
Ni39   O41     1.991   .     S
Ni39   O49     2.022   1_565 S
Ni39   O54     2.095   .     S
Ni39   O43     2.066   .     S
Ni39   O45     2.107   1_455 S
Ni40   O41     2.029   1_645 S
Ni40   O48     2.069   1_655 S
Ni40   O51     2.107   1_655 S
Ni40   O47     2.084   .     S
O41    Ni40    2.029   1_465 S
O41    H42     1.000   .     S
O43    C63     1.253   .     S
O44    C63     1.258   .     S
O45    C60     1.269   1_565 S
O45    Ni39    2.107   1_655 S
O46    C59     1.377   .     S
O46    C67     1.394   .     S
O47    C60     1.256   .     S
O48    Ni40    2.069   1_455 S
O48    C68     1.251   .     S
O49    Ni39    2.022   1_545 S
O49    C68     1.256   .     S
N50    C57     1.342   .     S
N50    C65     1.335   .     S
O51    Ni40    2.107   1_455 S
O51    H52     0.873   .     S
O51    H53     0.876   .     S
O54    H55     0.919   .     S
O54    H56     0.930   .     S
C57    H58     0.950   .     S
C57    C59     1.387   1_554 S
C59    C57     1.387   1_556 S
C59    C73     1.378   .     S
C60    O45     1.269   1_545 S
C60    C64     1.500   .     S
C61    H62     0.950   .     S
C61    C71     1.394   .     S
C61    C67     1.380   .     S
C63    C72     1.515   .     S
C64    C65     1.395   1_556 S
C64    C73     1.394   .     S
C65    C64     1.395   1_554 S
C65    H66     0.950   1_545 S
H66    C65     0.950   1_565 S
C67    C75     1.378   .     S
C68    C71     1.504   .     S
C69    H70     0.950   .     S
C69    C72     1.390   .     S
C69    C71     1.392   .     S
C72    C75     1.394   .     S
C73    H74     0.950   .     S
C75    H76     0.950   .     S
