data_HOGJUK_FSR
_audit_creation_date              2024-06-11
_audit_creation_method            'Materials Studio'
_symmetry_space_group_name_H-M    'P1'
_symmetry_Int_Tables_number       1
_symmetry_cell_setting            triclinic
loop_
_symmetry_equiv_pos_as_xyz
  x,y,z
_cell_length_a                    8.8345
_cell_length_b                    35.5910
_cell_length_c                    16.2460
_cell_angle_alpha                 90.0000
_cell_angle_beta                  93.4370
_cell_angle_gamma                 90.0000
loop_
_atom_site_label
_atom_site_type_symbol
_atom_site_fract_x
_atom_site_fract_y
_atom_site_fract_z
_atom_site_U_iso_or_equiv
_atom_site_adp_type
_atom_site_occupancy
C1     C     0.78580   0.23910   0.29300   0.00000  Uiso   1.00
C2     C     0.32950   0.12420   0.30990   0.00000  Uiso   1.00
C3     C     0.41040   0.14231   0.38670   0.00000  Uiso   1.00
C4     C     0.50080   0.02214   0.36020   0.00000  Uiso   1.00
C5     C     0.34580   0.00271   0.36520   0.00000  Uiso   1.00
C6     C     0.27070   0.06728   0.59980   0.00000  Uiso   1.00
C7     C     0.11710   0.08000   0.55820   0.00000  Uiso   1.00
C8     C     0.95800   0.36598   0.29050   0.00000  Uiso   1.00
C9     C     0.72020   0.25833   0.21260   0.00000  Uiso   1.00
Cr10   Cr    0.31644   0.07284   0.43526   0.00000  Uiso   1.00
O11    O     0.91410   0.25227   0.32120   0.00000  Uiso   1.00
O12    O     0.71280   0.21379   0.32310   0.00000  Uiso   1.00
O13    O     0.79910   0.28591   0.18770   0.00000  Uiso   1.00
O14    O     0.93510   0.33273   0.32030   0.00000  Uiso   1.00
O15    O     0.47100   0.17323   0.37830   0.00000  Uiso   1.00
O16    O     0.32850   0.14141   0.24360   0.00000  Uiso   1.00
O17    O     0.40380   0.12339   0.45340   0.00000  Uiso   1.00
O18    O     0.26300   0.09273   0.32390   0.00000  Uiso   1.00
O19    O     0.51180   0.05419   0.39790   0.00000  Uiso   1.00
O20    O     0.24610   0.02196   0.40280   0.00000  Uiso   1.00
O21    O     0.12050   0.08567   0.48040   0.00000  Uiso   1.00
O22    O     0.37280   0.05957   0.55010   0.00000  Uiso   1.00
O23    O     0.32320   0.97180   0.33350   0.00000  Uiso   1.00
O24    O     0.59910   0.00686   0.32260   0.00000  Uiso   1.00
O25    O     0.92740   0.39604   0.32200   0.00000  Uiso   1.00
O26    O     0.28330   0.06594   0.67610   0.00000  Uiso   1.00
O27    O     0.00530   0.08490   0.59820   0.00000  Uiso   1.00
O28    O     0.60220   0.24659   0.18110   0.00000  Uiso   1.00
C29    C     0.28580   0.73910   0.29300   0.00000  Uiso   1.00
C30    C     0.82950   0.62420   0.30990   0.00000  Uiso   1.00
C31    C     0.91040   0.64231   0.38670   0.00000  Uiso   1.00
C32    C     0.00080   0.52214   0.36020   0.00000  Uiso   1.00
C33    C     0.84580   0.50271   0.36520   0.00000  Uiso   1.00
C34    C     0.77070   0.56728   0.59980   0.00000  Uiso   1.00
C35    C     0.61710   0.58000   0.55820   0.00000  Uiso   1.00
C36    C     0.45800   0.86598   0.29050   0.00000  Uiso   1.00
C37    C     0.22020   0.75833   0.21260   0.00000  Uiso   1.00
Cr38   Cr    0.81644   0.57284   0.43526   0.00000  Uiso   1.00
O39    O     0.41410   0.75227   0.32120   0.00000  Uiso   1.00
O40    O     0.21280   0.71379   0.32310   0.00000  Uiso   1.00
O41    O     0.29910   0.78591   0.18770   0.00000  Uiso   1.00
O42    O     0.43510   0.83273   0.32030   0.00000  Uiso   1.00
O43    O     0.97100   0.67323   0.37830   0.00000  Uiso   1.00
O44    O     0.82850   0.64141   0.24360   0.00000  Uiso   1.00
O45    O     0.90380   0.62339   0.45340   0.00000  Uiso   1.00
O46    O     0.76300   0.59273   0.32390   0.00000  Uiso   1.00
O47    O     0.01180   0.55419   0.39790   0.00000  Uiso   1.00
O48    O     0.74610   0.52196   0.40280   0.00000  Uiso   1.00
O49    O     0.62050   0.58567   0.48040   0.00000  Uiso   1.00
O50    O     0.87280   0.55957   0.55010   0.00000  Uiso   1.00
O51    O     0.82320   0.47180   0.33350   0.00000  Uiso   1.00
O52    O     0.09910   0.50686   0.32260   0.00000  Uiso   1.00
O53    O     0.42740   0.89604   0.32200   0.00000  Uiso   1.00
O54    O     0.78330   0.56594   0.67610   0.00000  Uiso   1.00
O55    O     0.50530   0.58490   0.59820   0.00000  Uiso   1.00
O56    O     0.10220   0.74659   0.18110   0.00000  Uiso   1.00
C57    C     0.21420   0.23910   0.20700   0.00000  Uiso   1.00
C58    C     0.67050   0.12420   0.19010   0.00000  Uiso   1.00
C59    C     0.58960   0.14231   0.11330   0.00000  Uiso   1.00
C60    C     0.49920   0.02214   0.13980   0.00000  Uiso   1.00
C61    C     0.65420   0.00271   0.13480   0.00000  Uiso   1.00
C62    C     0.72930   0.06728   0.90020   0.00000  Uiso   1.00
C63    C     0.88290   0.08000   0.94180   0.00000  Uiso   1.00
C64    C     0.04200   0.36598   0.20950   0.00000  Uiso   1.00
C65    C     0.27980   0.25833   0.28740   0.00000  Uiso   1.00
Cr66   Cr    0.68356   0.07284   0.06474   0.00000  Uiso   1.00
O67    O     0.08590   0.25227   0.17880   0.00000  Uiso   1.00
O68    O     0.28720   0.21379   0.17690   0.00000  Uiso   1.00
O69    O     0.20090   0.28591   0.31230   0.00000  Uiso   1.00
O70    O     0.06490   0.33273   0.17970   0.00000  Uiso   1.00
O71    O     0.52900   0.17323   0.12170   0.00000  Uiso   1.00
O72    O     0.67150   0.14141   0.25640   0.00000  Uiso   1.00
O73    O     0.59620   0.12339   0.04660   0.00000  Uiso   1.00
O74    O     0.73700   0.09273   0.17610   0.00000  Uiso   1.00
O75    O     0.48820   0.05419   0.10210   0.00000  Uiso   1.00
O76    O     0.75390   0.02196   0.09720   0.00000  Uiso   1.00
O77    O     0.87950   0.08567   0.01960   0.00000  Uiso   1.00
O78    O     0.62720   0.05957   0.94990   0.00000  Uiso   1.00
O79    O     0.67680   0.97180   0.16650   0.00000  Uiso   1.00
O80    O     0.40090   0.00686   0.17740   0.00000  Uiso   1.00
O81    O     0.07260   0.39604   0.17800   0.00000  Uiso   1.00
O82    O     0.71670   0.06594   0.82390   0.00000  Uiso   1.00
O83    O     0.99470   0.08490   0.90180   0.00000  Uiso   1.00
O84    O     0.39780   0.24659   0.31890   0.00000  Uiso   1.00
C85    C     0.71420   0.73910   0.20700   0.00000  Uiso   1.00
C86    C     0.17050   0.62420   0.19010   0.00000  Uiso   1.00
C87    C     0.08960   0.64231   0.11330   0.00000  Uiso   1.00
C88    C     0.99920   0.52214   0.13980   0.00000  Uiso   1.00
C89    C     0.15420   0.50271   0.13480   0.00000  Uiso   1.00
C90    C     0.22930   0.56728   0.90020   0.00000  Uiso   1.00
C91    C     0.38290   0.58000   0.94180   0.00000  Uiso   1.00
C92    C     0.54200   0.86598   0.20950   0.00000  Uiso   1.00
C93    C     0.77980   0.75833   0.28740   0.00000  Uiso   1.00
Cr94   Cr    0.18356   0.57284   0.06474   0.00000  Uiso   1.00
O95    O     0.58590   0.75227   0.17880   0.00000  Uiso   1.00
O96    O     0.78720   0.71379   0.17690   0.00000  Uiso   1.00
O97    O     0.70090   0.78591   0.31230   0.00000  Uiso   1.00
O98    O     0.56490   0.83273   0.17970   0.00000  Uiso   1.00
O99    O     0.02900   0.67323   0.12170   0.00000  Uiso   1.00
O100   O     0.17150   0.64141   0.25640   0.00000  Uiso   1.00
O101   O     0.09620   0.62339   0.04660   0.00000  Uiso   1.00
O102   O     0.23700   0.59273   0.17610   0.00000  Uiso   1.00
O103   O     0.98820   0.55419   0.10210   0.00000  Uiso   1.00
O104   O     0.25390   0.52196   0.09720   0.00000  Uiso   1.00
O105   O     0.37950   0.58567   0.01960   0.00000  Uiso   1.00
O106   O     0.12720   0.55957   0.94990   0.00000  Uiso   1.00
O107   O     0.17680   0.47180   0.16650   0.00000  Uiso   1.00
O108   O     0.90090   0.50686   0.17740   0.00000  Uiso   1.00
O109   O     0.57260   0.89604   0.17800   0.00000  Uiso   1.00
O110   O     0.21670   0.56594   0.82390   0.00000  Uiso   1.00
O111   O     0.49470   0.58490   0.90180   0.00000  Uiso   1.00
O112   O     0.89780   0.74659   0.31890   0.00000  Uiso   1.00
C113   C     0.21420   0.76090   0.70700   0.00000  Uiso   1.00
C114   C     0.67050   0.87580   0.69010   0.00000  Uiso   1.00
C115   C     0.58960   0.85769   0.61330   0.00000  Uiso   1.00
C116   C     0.49920   0.97786   0.63980   0.00000  Uiso   1.00
C117   C     0.65420   0.99729   0.63480   0.00000  Uiso   1.00
C118   C     0.72930   0.93272   0.40020   0.00000  Uiso   1.00
C119   C     0.88290   0.92000   0.44180   0.00000  Uiso   1.00
C120   C     0.04200   0.63402   0.70950   0.00000  Uiso   1.00
C121   C     0.27980   0.74167   0.78740   0.00000  Uiso   1.00
Cr122  Cr    0.68356   0.92716   0.56474   0.00000  Uiso   1.00
O123   O     0.08590   0.74773   0.67880   0.00000  Uiso   1.00
O124   O     0.28720   0.78621   0.67690   0.00000  Uiso   1.00
O125   O     0.20090   0.71409   0.81230   0.00000  Uiso   1.00
O126   O     0.06490   0.66727   0.67970   0.00000  Uiso   1.00
O127   O     0.52900   0.82677   0.62170   0.00000  Uiso   1.00
O128   O     0.67150   0.85859   0.75640   0.00000  Uiso   1.00
O129   O     0.59620   0.87661   0.54660   0.00000  Uiso   1.00
O130   O     0.73700   0.90727   0.67610   0.00000  Uiso   1.00
O131   O     0.48820   0.94581   0.60210   0.00000  Uiso   1.00
O132   O     0.75390   0.97804   0.59720   0.00000  Uiso   1.00
O133   O     0.87950   0.91433   0.51960   0.00000  Uiso   1.00
O134   O     0.62720   0.94043   0.44990   0.00000  Uiso   1.00
O135   O     0.67680   0.02820   0.66650   0.00000  Uiso   1.00
O136   O     0.40090   0.99314   0.67740   0.00000  Uiso   1.00
O137   O     0.07260   0.60396   0.67800   0.00000  Uiso   1.00
O138   O     0.71670   0.93406   0.32390   0.00000  Uiso   1.00
O139   O     0.99470   0.91510   0.40180   0.00000  Uiso   1.00
O140   O     0.39780   0.75341   0.81890   0.00000  Uiso   1.00
C141   C     0.71420   0.26090   0.70700   0.00000  Uiso   1.00
C142   C     0.17050   0.37580   0.69010   0.00000  Uiso   1.00
C143   C     0.08960   0.35769   0.61330   0.00000  Uiso   1.00
C144   C     0.99920   0.47786   0.63980   0.00000  Uiso   1.00
C145   C     0.15420   0.49729   0.63480   0.00000  Uiso   1.00
C146   C     0.22930   0.43272   0.40020   0.00000  Uiso   1.00
C147   C     0.38290   0.42000   0.44180   0.00000  Uiso   1.00
C148   C     0.54200   0.13402   0.70950   0.00000  Uiso   1.00
C149   C     0.77980   0.24167   0.78740   0.00000  Uiso   1.00
Cr150  Cr    0.18356   0.42716   0.56474   0.00000  Uiso   1.00
O151   O     0.58590   0.24773   0.67880   0.00000  Uiso   1.00
O152   O     0.78720   0.28621   0.67690   0.00000  Uiso   1.00
O153   O     0.70090   0.21409   0.81230   0.00000  Uiso   1.00
O154   O     0.56490   0.16727   0.67970   0.00000  Uiso   1.00
O155   O     0.02900   0.32677   0.62170   0.00000  Uiso   1.00
O156   O     0.17150   0.35859   0.75640   0.00000  Uiso   1.00
O157   O     0.09620   0.37661   0.54660   0.00000  Uiso   1.00
O158   O     0.23700   0.40727   0.67610   0.00000  Uiso   1.00
O159   O     0.98820   0.44581   0.60210   0.00000  Uiso   1.00
O160   O     0.25390   0.47804   0.59720   0.00000  Uiso   1.00
O161   O     0.37950   0.41433   0.51960   0.00000  Uiso   1.00
O162   O     0.12720   0.44043   0.44990   0.00000  Uiso   1.00
O163   O     0.17680   0.52820   0.66650   0.00000  Uiso   1.00
O164   O     0.90090   0.49314   0.67740   0.00000  Uiso   1.00
O165   O     0.57260   0.10396   0.67800   0.00000  Uiso   1.00
O166   O     0.21670   0.43406   0.32390   0.00000  Uiso   1.00
O167   O     0.49470   0.41510   0.40180   0.00000  Uiso   1.00
O168   O     0.89780   0.25341   0.81890   0.00000  Uiso   1.00
C169   C     0.78580   0.76090   0.79300   0.00000  Uiso   1.00
C170   C     0.32950   0.87580   0.80990   0.00000  Uiso   1.00
C171   C     0.41040   0.85769   0.88670   0.00000  Uiso   1.00
C172   C     0.50080   0.97786   0.86020   0.00000  Uiso   1.00
C173   C     0.34580   0.99729   0.86520   0.00000  Uiso   1.00
C174   C     0.27070   0.93272   0.09980   0.00000  Uiso   1.00
C175   C     0.11710   0.92000   0.05820   0.00000  Uiso   1.00
C176   C     0.95800   0.63402   0.79050   0.00000  Uiso   1.00
C177   C     0.72020   0.74167   0.71260   0.00000  Uiso   1.00
Cr178  Cr    0.31644   0.92716   0.93526   0.00000  Uiso   1.00
O179   O     0.91410   0.74773   0.82120   0.00000  Uiso   1.00
O180   O     0.71280   0.78621   0.82310   0.00000  Uiso   1.00
O181   O     0.79910   0.71409   0.68770   0.00000  Uiso   1.00
O182   O     0.93510   0.66727   0.82030   0.00000  Uiso   1.00
O183   O     0.47100   0.82677   0.87830   0.00000  Uiso   1.00
O184   O     0.32850   0.85859   0.74360   0.00000  Uiso   1.00
O185   O     0.40380   0.87661   0.95340   0.00000  Uiso   1.00
O186   O     0.26300   0.90727   0.82390   0.00000  Uiso   1.00
O187   O     0.51180   0.94581   0.89790   0.00000  Uiso   1.00
O188   O     0.24610   0.97804   0.90280   0.00000  Uiso   1.00
O189   O     0.12050   0.91433   0.98040   0.00000  Uiso   1.00
O190   O     0.37280   0.94043   0.05010   0.00000  Uiso   1.00
O191   O     0.32320   0.02820   0.83350   0.00000  Uiso   1.00
O192   O     0.59910   0.99314   0.82260   0.00000  Uiso   1.00
O193   O     0.92740   0.60396   0.82200   0.00000  Uiso   1.00
O194   O     0.28330   0.93406   0.17610   0.00000  Uiso   1.00
O195   O     0.00530   0.91510   0.09820   0.00000  Uiso   1.00
O196   O     0.60220   0.75341   0.68110   0.00000  Uiso   1.00
C197   C     0.28580   0.26090   0.79300   0.00000  Uiso   1.00
C198   C     0.82950   0.37580   0.80990   0.00000  Uiso   1.00
C199   C     0.91040   0.35769   0.88670   0.00000  Uiso   1.00
C200   C     0.00080   0.47786   0.86020   0.00000  Uiso   1.00
C201   C     0.84580   0.49729   0.86520   0.00000  Uiso   1.00
C202   C     0.77070   0.43272   0.09980   0.00000  Uiso   1.00
C203   C     0.61710   0.42000   0.05820   0.00000  Uiso   1.00
C204   C     0.45800   0.13402   0.79050   0.00000  Uiso   1.00
C205   C     0.22020   0.24167   0.71260   0.00000  Uiso   1.00
Cr206  Cr    0.81644   0.42716   0.93526   0.00000  Uiso   1.00
O207   O     0.41410   0.24773   0.82120   0.00000  Uiso   1.00
O208   O     0.21280   0.28621   0.82310   0.00000  Uiso   1.00
O209   O     0.29910   0.21409   0.68770   0.00000  Uiso   1.00
O210   O     0.43510   0.16727   0.82030   0.00000  Uiso   1.00
O211   O     0.97100   0.32677   0.87830   0.00000  Uiso   1.00
O212   O     0.82850   0.35859   0.74360   0.00000  Uiso   1.00
O213   O     0.90380   0.37661   0.95340   0.00000  Uiso   1.00
O214   O     0.76300   0.40727   0.82390   0.00000  Uiso   1.00
O215   O     0.01180   0.44581   0.89790   0.00000  Uiso   1.00
O216   O     0.74610   0.47804   0.90280   0.00000  Uiso   1.00
O217   O     0.62050   0.41433   0.98040   0.00000  Uiso   1.00
O218   O     0.87280   0.44043   0.05010   0.00000  Uiso   1.00
O219   O     0.82320   0.52820   0.83350   0.00000  Uiso   1.00
O220   O     0.09910   0.49314   0.82260   0.00000  Uiso   1.00
O221   O     0.42740   0.10396   0.82200   0.00000  Uiso   1.00
O222   O     0.78330   0.43406   0.17610   0.00000  Uiso   1.00
O223   O     0.50530   0.41510   0.09820   0.00000  Uiso   1.00
O224   O     0.10220   0.25341   0.68110   0.00000  Uiso   1.00
Cr225  Cr   -0.00000   0.29117   0.25000   0.00000  Uiso   1.00
Mn226  Mn   -0.00000   0.44948   0.25000   0.00000  Uiso   1.00
Cr227  Cr    0.50000   0.79117   0.25000   0.00000  Uiso   1.00
Mn228  Mn    0.50000   0.94948   0.25000   0.00000  Uiso   1.00
Cr229  Cr    0.00000   0.70883   0.75000   0.00000  Uiso   1.00
Mn230  Mn    0.00000   0.55052   0.75000   0.00000  Uiso   1.00
Cr231  Cr    0.50000   0.20883   0.75000   0.00000  Uiso   1.00
Mn232  Mn    0.50000   0.05052   0.75000   0.00000  Uiso   1.00
Mn233  Mn    0.50000   0.19466   0.25000   0.00000  Uiso   1.00
Mn234  Mn   -0.00000   0.69466   0.25000   0.00000  Uiso   1.00
Mn235  Mn    0.50000   0.80534   0.75000   0.00000  Uiso   1.00
Mn236  Mn    0.00000   0.30534   0.75000   0.00000  Uiso   1.00
loop_
_geom_bond_atom_site_label_1
_geom_bond_atom_site_label_2
_geom_bond_distance
_geom_bond_site_symmetry_2
_ccdc_geom_bond_type
C1     C9      1.556   .     S
C1     O11     1.285   .     S
C1     O12     1.227   .     S
C2     C3      1.541   .     S
C2     O16     1.239   .     S
C2     O18     1.291   .     S
C3     O15     1.235   .     S
C3     O17     1.280   .     S
C4     C5      1.541   .     S
C4     O19     1.296   .     S
C4     O24     1.219   .     S
C5     O20     1.297   .     S
C5     O23     1.226   1_545 S
C6     C7      1.547   .     S
C6     O22     1.276   .     S
C6     O26     1.239   .     S
C7     O21     1.282   .     S
C7     O27     1.227   .     S
C8     O14     1.299   .     S
C8     O25     1.223   .     S
C8     C64     1.549   1_655 S
C9     O13     1.283   .     S
C9     O28     1.208   .     S
Cr10   O17     1.973   .     S
Cr10   O20     1.976   .     S
Cr10   O21     1.974   .     S
Cr10   O18     1.973   .     S
Cr10   O19     1.978   .     S
Cr10   O22     1.960   .     S
O11    Cr225   1.984   1_655 S
O12    Mn233   2.267   .     S
O13    Cr225   1.999   1_655 S
O14    Cr225   1.975   1_655 S
O15    Mn233   2.249   .     S
O16    Mn233   2.425   .     S
O23    C5      1.226   1_565 S
O23    Mn228   2.273   .     S
O25    Mn226   2.342   1_655 S
O26    Mn232   2.265   .     S
O28    Mn233   2.368   .     S
C29    C37     1.556   .     S
C29    O39     1.285   .     S
C29    O40     1.227   .     S
C30    C31     1.541   .     S
C30    O44     1.239   .     S
C30    O46     1.291   .     S
C31    O43     1.235   .     S
C31    O45     1.280   .     S
C32    C33     1.541   1_455 S
C32    O47     1.296   .     S
C32    O52     1.219   .     S
C33    C32     1.541   1_655 S
C33    O48     1.297   .     S
C33    O51     1.226   .     S
C34    C35     1.547   .     S
C34    O50     1.276   .     S
C34    O54     1.239   .     S
C35    O49     1.282   .     S
C35    O55     1.227   .     S
C36    O42     1.299   .     S
C36    O53     1.223   .     S
C36    C92     1.549   .     S
C37    O41     1.283   .     S
C37    O56     1.208   .     S
Cr38   O45     1.973   .     S
Cr38   O48     1.976   .     S
Cr38   O49     1.974   .     S
Cr38   O46     1.973   .     S
Cr38   O47     1.978   1_655 S
Cr38   O50     1.960   .     S
O39    Cr227   1.984   .     S
O40    Mn234   2.267   .     S
O41    Cr227   1.999   .     S
O42    Cr227   1.975   .     S
O43    Mn234   2.249   1_655 S
O44    Mn234   2.425   1_655 S
O47    Cr38    1.978   1_455 S
O51    Mn226   2.273   1_655 S
O53    Mn228   2.342   .     S
O54    Mn230   2.265   1_655 S
O56    Mn234   2.368   .     S
C57    C65     1.556   .     S
C57    O67     1.285   .     S
C57    O68     1.227   .     S
C58    C59     1.541   .     S
C58    O72     1.239   .     S
C58    O74     1.291   .     S
C59    O71     1.235   .     S
C59    O73     1.280   .     S
C60    C61     1.541   .     S
C60    O75     1.296   .     S
C60    O80     1.219   .     S
C61    O76     1.297   .     S
C61    O79     1.226   1_545 S
C62    C63     1.547   .     S
C62    O78     1.276   .     S
C62    O82     1.239   .     S
C63    O77     1.282   1_556 S
C63    O83     1.227   .     S
C64    O70     1.299   .     S
C64    O81     1.223   .     S
C64    C8      1.549   1_455 S
C65    O69     1.283   .     S
C65    O84     1.208   .     S
Cr66   O73     1.973   .     S
Cr66   O76     1.976   .     S
Cr66   O77     1.974   .     S
Cr66   O74     1.973   .     S
Cr66   O75     1.978   .     S
Cr66   O78     1.960   1_554 S
O67    Cr225   1.984   .     S
O68    Mn233   2.267   .     S
O69    Cr225   1.999   .     S
O70    Cr225   1.975   .     S
O71    Mn233   2.249   .     S
O72    Mn233   2.425   .     S
O77    C63     1.282   1_554 S
O78    Cr66    1.960   1_556 S
O79    C61     1.226   1_565 S
O79    Mn228   2.273   .     S
O81    Mn226   2.342   .     S
O82    Mn232   2.265   .     S
O84    Mn233   2.368   .     S
C85    C93     1.556   .     S
C85    O95     1.285   .     S
C85    O96     1.227   .     S
C86    C87     1.541   .     S
C86    O100    1.239   .     S
C86    O102    1.291   .     S
C87    O99     1.235   .     S
C87    O101    1.280   .     S
C88    C89     1.541   1_655 S
C88    O103    1.296   .     S
C88    O108    1.219   .     S
C89    C88     1.541   1_455 S
C89    O104    1.297   .     S
C89    O107    1.226   .     S
C90    C91     1.547   .     S
C90    O106    1.276   .     S
C90    O110    1.239   .     S
C91    O105    1.282   1_556 S
C91    O111    1.227   .     S
C92    O98     1.299   .     S
C92    O109    1.223   .     S
C93    O97     1.283   .     S
C93    O112    1.208   .     S
Cr94   O101    1.973   .     S
Cr94   O104    1.976   .     S
Cr94   O105    1.974   .     S
Cr94   O102    1.973   .     S
Cr94   O103    1.978   1_455 S
Cr94   O106    1.960   1_554 S
O95    Cr227   1.984   .     S
O96    Mn234   2.267   1_655 S
O97    Cr227   1.999   .     S
O98    Cr227   1.975   .     S
O99    Mn234   2.249   .     S
O100   Mn234   2.425   .     S
O103   Cr94    1.978   1_655 S
O105   C91     1.282   1_554 S
O106   Cr94    1.960   1_556 S
O107   Mn226   2.273   .     S
O109   Mn228   2.342   .     S
O110   Mn230   2.265   .     S
O112   Mn234   2.368   1_655 S
C113   C121    1.556   .     S
C113   O123    1.285   .     S
C113   O124    1.227   .     S
C114   C115    1.541   .     S
C114   O128    1.239   .     S
C114   O130    1.291   .     S
C115   O127    1.235   .     S
C115   O129    1.280   .     S
C116   C117    1.541   .     S
C116   O131    1.296   .     S
C116   O136    1.219   .     S
C117   O132    1.297   .     S
C117   O135    1.226   1_565 S
C118   C119    1.547   .     S
C118   O134    1.276   .     S
C118   O138    1.239   .     S
C119   O133    1.282   .     S
C119   O139    1.227   .     S
C120   O126    1.299   .     S
C120   O137    1.223   .     S
C120   C176    1.549   1_455 S
C121   O125    1.283   .     S
C121   O140    1.208   .     S
Cr122  O129    1.973   .     S
Cr122  O132    1.976   .     S
Cr122  O133    1.974   .     S
Cr122  O130    1.973   .     S
Cr122  O131    1.978   .     S
Cr122  O134    1.960   .     S
O123   Cr229   1.984   .     S
O124   Mn235   2.267   .     S
O125   Cr229   1.999   .     S
O126   Cr229   1.975   .     S
O127   Mn235   2.249   .     S
O128   Mn235   2.425   .     S
O135   C117    1.226   1_545 S
O135   Mn232   2.273   .     S
O137   Mn230   2.342   .     S
O138   Mn228   2.265   .     S
O140   Mn235   2.368   .     S
C141   C149    1.556   .     S
C141   O151    1.285   .     S
C141   O152    1.227   .     S
C142   C143    1.541   .     S
C142   O156    1.239   .     S
C142   O158    1.291   .     S
C143   O155    1.235   .     S
C143   O157    1.280   .     S
C144   C145    1.541   1_655 S
C144   O159    1.296   .     S
C144   O164    1.219   .     S
C145   C144    1.541   1_455 S
C145   O160    1.297   .     S
C145   O163    1.226   .     S
C146   C147    1.547   .     S
C146   O162    1.276   .     S
C146   O166    1.239   .     S
C147   O161    1.282   .     S
C147   O167    1.227   .     S
C148   O154    1.299   .     S
C148   O165    1.223   .     S
C148   C204    1.549   .     S
C149   O153    1.283   .     S
C149   O168    1.208   .     S
Cr150  O157    1.973   .     S
Cr150  O160    1.976   .     S
Cr150  O161    1.974   .     S
Cr150  O158    1.973   .     S
Cr150  O159    1.978   1_455 S
Cr150  O162    1.960   .     S
O151   Cr231   1.984   .     S
O152   Mn236   2.267   1_655 S
O153   Cr231   1.999   .     S
O154   Cr231   1.975   .     S
O155   Mn236   2.249   .     S
O156   Mn236   2.425   .     S
O159   Cr150   1.978   1_655 S
O163   Mn230   2.273   .     S
O165   Mn232   2.342   .     S
O166   Mn226   2.265   .     S
O168   Mn236   2.368   1_655 S
C169   C177    1.556   .     S
C169   O179    1.285   .     S
C169   O180    1.227   .     S
C170   C171    1.541   .     S
C170   O184    1.239   .     S
C170   O186    1.291   .     S
C171   O183    1.235   .     S
C171   O185    1.280   .     S
C172   C173    1.541   .     S
C172   O187    1.296   .     S
C172   O192    1.219   .     S
C173   O188    1.297   .     S
C173   O191    1.226   1_565 S
C174   C175    1.547   .     S
C174   O190    1.276   .     S
C174   O194    1.239   .     S
C175   O189    1.282   1_554 S
C175   O195    1.227   .     S
C176   O182    1.299   .     S
C176   O193    1.223   .     S
C176   C120    1.549   1_655 S
C177   O181    1.283   .     S
C177   O196    1.208   .     S
Cr178  O185    1.973   .     S
Cr178  O188    1.976   .     S
Cr178  O189    1.974   .     S
Cr178  O186    1.973   .     S
Cr178  O187    1.978   .     S
Cr178  O190    1.960   1_556 S
O179   Cr229   1.984   1_655 S
O180   Mn235   2.267   .     S
O181   Cr229   1.999   1_655 S
O182   Cr229   1.975   1_655 S
O183   Mn235   2.249   .     S
O184   Mn235   2.425   .     S
O189   C175    1.282   1_556 S
O190   Cr178   1.960   1_554 S
O191   C173    1.226   1_545 S
O191   Mn232   2.273   .     S
O193   Mn230   2.342   1_655 S
O194   Mn228   2.265   .     S
O196   Mn235   2.368   .     S
C197   C205    1.556   .     S
C197   O207    1.285   .     S
C197   O208    1.227   .     S
C198   C199    1.541   .     S
C198   O212    1.239   .     S
C198   O214    1.291   .     S
C199   O211    1.235   .     S
C199   O213    1.280   .     S
C200   C201    1.541   1_455 S
C200   O215    1.296   .     S
C200   O220    1.219   .     S
C201   C200    1.541   1_655 S
C201   O216    1.297   .     S
C201   O219    1.226   .     S
C202   C203    1.547   .     S
C202   O218    1.276   .     S
C202   O222    1.239   .     S
C203   O217    1.282   1_554 S
C203   O223    1.227   .     S
C204   O210    1.299   .     S
C204   O221    1.223   .     S
C205   O209    1.283   .     S
C205   O224    1.208   .     S
Cr206  O213    1.973   .     S
Cr206  O216    1.976   .     S
Cr206  O217    1.974   .     S
Cr206  O214    1.973   .     S
Cr206  O215    1.978   1_655 S
Cr206  O218    1.960   1_556 S
O207   Cr231   1.984   .     S
O208   Mn236   2.267   .     S
O209   Cr231   1.999   .     S
O210   Cr231   1.975   .     S
O211   Mn236   2.249   1_655 S
O212   Mn236   2.425   1_655 S
O215   Cr206   1.978   1_455 S
O217   C203    1.282   1_556 S
O218   Cr206   1.960   1_554 S
O219   Mn230   2.273   1_655 S
O221   Mn232   2.342   .     S
O222   Mn226   2.265   1_655 S
O224   Mn236   2.368   .     S
Cr225  O11     1.984   1_455 S
Cr225  O13     1.999   1_455 S
Cr225  O14     1.975   1_455 S
Mn226  O25     2.342   1_455 S
Mn226  O51     2.273   1_455 S
Mn226  O222    2.265   1_455 S
Cr229  O179    1.984   1_455 S
Cr229  O181    1.999   1_455 S
Cr229  O182    1.975   1_455 S
Mn230  O193    2.342   1_455 S
Mn230  O219    2.273   1_455 S
Mn230  O54     2.265   1_455 S
Mn234  O96     2.267   1_455 S
Mn234  O43     2.249   1_455 S
Mn234  O44     2.425   1_455 S
Mn234  O112    2.368   1_455 S
Mn236  O152    2.267   1_455 S
Mn236  O211    2.249   1_455 S
Mn236  O212    2.425   1_455 S
Mn236  O168    2.368   1_455 S
