data_HOWRIW_FSR
_audit_creation_date              2024-06-11
_audit_creation_method            'Materials Studio'
_symmetry_space_group_name_H-M    'P1'
_symmetry_Int_Tables_number       1
_symmetry_cell_setting            triclinic
loop_
_symmetry_equiv_pos_as_xyz
  x,y,z
_cell_length_a                    13.6876
_cell_length_b                    10.4272
_cell_length_c                    15.0005
_cell_angle_alpha                 90.0000
_cell_angle_beta                  100.2560
_cell_angle_gamma                 90.0000
loop_
_atom_site_label
_atom_site_type_symbol
_atom_site_fract_x
_atom_site_fract_y
_atom_site_fract_z
_atom_site_U_iso_or_equiv
_atom_site_adp_type
_atom_site_occupancy
Sr1    Sr    0.10322   0.04723   0.13163   0.02108  Uani   1.00
Sr2    Sr    0.41162   0.02750   0.08423   0.02158  Uani   1.00
O3     O     0.07210   0.47200   0.44300   0.03232  Uani   1.00
O4     O     0.22360   0.41930   0.51040   0.02513  Uani   1.00
O5     O     0.44830   0.34810   0.43960   0.02250  Uani   1.00
O6     O     0.51180   0.16900   0.39230   0.02816  Uani   1.00
O7     O     0.00490   0.16150   0.39870   0.02811  Uani   1.00
O8     O     0.04900   0.17870   0.26340   0.02483  Uani   1.00
O9     O     0.40350   0.23330   0.17490   0.02924  Uani   1.00
O10    O     0.28430   0.09960   0.20070   0.02400  Uani   1.00
O11    O     0.04460   0.27330   0.07710   0.04428  Uani   1.00
H12    H     0.01770   0.30620   0.11860   0.05300  Uiso   1.00
H13    H     0.04470   0.31790   0.02970   0.05300  Uiso   1.00
O14    O     0.09750   0.87230   0.25220   0.03981  Uani   1.00
H15    H     0.15260   0.85070   0.28430   0.04800  Uiso   1.00
H16    H     0.07650   0.79570   0.24410   0.04800  Uiso   1.00
O17    O     0.60470   0.09770   0.09190   0.03576  Uani   1.00
H18    H     0.63330   0.04330   0.06310   0.05400  Uiso   1.00
H19    H     0.63380   0.10000   0.14690   0.05400  Uiso   1.00
O20    O     0.49830   0.97070   0.25030   0.04332  Uani   1.00
H21    H     0.51660   0.03310   0.28580   0.05200  Uiso   1.00
H22    H     0.53880   0.90920   0.26500   0.05200  Uiso   1.00
O23    O     0.33780   0.81720   0.12580   0.03166  Uani   1.00
H24    H     0.28020   0.79030   0.10290   0.03800  Uiso   1.00
H25    H     0.38630   0.77100   0.11690   0.03800  Uiso   1.00
O26    O     0.13880   0.81360   0.06500   0.03272  Uani   1.00
H27    H     0.09940   0.75780   0.08000   0.04000  Uiso   1.00
H28    H     0.10570   0.83730   0.01430   0.04000  Uiso   1.00
C29    C     0.16840   0.52620   0.29030   0.02560  Uani   1.00
H30    H     0.13150   0.59480   0.30600   0.03100  Uiso   1.00
C31    C     0.18880   0.42250   0.34890   0.01549  Uani   1.00
C32    C     0.20270   0.52800   0.20880   0.03271  Uani   1.00
H33    H     0.18930   0.59750   0.16970   0.03900  Uiso   1.00
C34    C     0.24080   0.31670   0.32510   0.01210  Uani   1.00
C35    C     0.25670   0.42570   0.18680   0.02726  Uani   1.00
H36    H     0.28220   0.42810   0.13340   0.03300  Uiso   1.00
C37    C     0.27400   0.31990   0.24180   0.01672  Uani   1.00
C38    C     0.32500   0.20940   0.20580   0.02213  Uani   1.00
C39    C     0.25450   0.19830   0.38210   0.01475  Uani   1.00
C40    C     0.44310   0.23130   0.41700   0.01867  Uani   1.00
C41    C     0.34960   0.15680   0.42360   0.01736  Uani   1.00
C42    C     0.17170   0.12300   0.39270   0.01668  Uani   1.00
C43    C     0.06880   0.15680   0.34750   0.01942  Uani   1.00
C44    C     0.18450   0.01120   0.44170   0.01989  Uani   1.00
H45    H     0.12930   0.96290   0.44880   0.02400  Uiso   1.00
C46    C     0.35980   0.04180   0.47070   0.02183  Uani   1.00
H47    H     0.42280   0.01290   0.49620   0.02600  Uiso   1.00
C48    C     0.27800   0.96940   0.48050   0.02215  Uani   1.00
H49    H     0.28590   0.89300   0.51300   0.02700  Uiso   1.00
C50    C     0.15990   0.43790   0.44080   0.01911  Uani   1.00
Sr51   Sr    0.89678   0.54723   0.36837   0.02108  Uani   1.00
Sr52   Sr    0.58838   0.52750   0.41577   0.02158  Uani   1.00
O53    O     0.92790   0.97200   0.05700   0.03232  Uani   1.00
O54    O     0.77640   0.91930   0.98960   0.02513  Uani   1.00
O55    O     0.55170   0.84810   0.06040   0.02250  Uani   1.00
O56    O     0.48820   0.66900   0.10770   0.02816  Uani   1.00
O57    O     0.99510   0.66150   0.10130   0.02811  Uani   1.00
O58    O     0.95100   0.67870   0.23660   0.02483  Uani   1.00
O59    O     0.59650   0.73330   0.32510   0.02924  Uani   1.00
O60    O     0.71570   0.59960   0.29930   0.02400  Uani   1.00
O61    O     0.95540   0.77330   0.42290   0.04428  Uani   1.00
H62    H     0.98230   0.80620   0.38140   0.05300  Uiso   1.00
H63    H     0.95530   0.81790   0.47030   0.05300  Uiso   1.00
O64    O     0.90250   0.37230   0.24780   0.03981  Uani   1.00
H65    H     0.84740   0.35070   0.21570   0.04800  Uiso   1.00
H66    H     0.92350   0.29570   0.25590   0.04800  Uiso   1.00
O67    O     0.39530   0.59770   0.40810   0.03576  Uani   1.00
H68    H     0.36670   0.54330   0.43690   0.05400  Uiso   1.00
H69    H     0.36620   0.60000   0.35310   0.05400  Uiso   1.00
O70    O     0.50170   0.47070   0.24970   0.04332  Uani   1.00
H71    H     0.48340   0.53310   0.21420   0.05200  Uiso   1.00
H72    H     0.46120   0.40920   0.23500   0.05200  Uiso   1.00
O73    O     0.66220   0.31720   0.37420   0.03166  Uani   1.00
H74    H     0.71980   0.29030   0.39710   0.03800  Uiso   1.00
H75    H     0.61370   0.27100   0.38310   0.03800  Uiso   1.00
O76    O     0.86120   0.31360   0.43500   0.03272  Uani   1.00
H77    H     0.90060   0.25780   0.42000   0.04000  Uiso   1.00
H78    H     0.89430   0.33730   0.48570   0.04000  Uiso   1.00
C79    C     0.83160   0.02620   0.20970   0.02560  Uani   1.00
H80    H     0.86850   0.09480   0.19400   0.03100  Uiso   1.00
C81    C     0.81120   0.92250   0.15110   0.01549  Uani   1.00
C82    C     0.79730   0.02800   0.29120   0.03271  Uani   1.00
H83    H     0.81070   0.09750   0.33030   0.03900  Uiso   1.00
C84    C     0.75920   0.81670   0.17490   0.01210  Uani   1.00
C85    C     0.74330   0.92570   0.31320   0.02726  Uani   1.00
H86    H     0.71780   0.92810   0.36660   0.03300  Uiso   1.00
C87    C     0.72600   0.81990   0.25820   0.01672  Uani   1.00
C88    C     0.67500   0.70940   0.29420   0.02213  Uani   1.00
C89    C     0.74550   0.69830   0.11790   0.01475  Uani   1.00
C90    C     0.55690   0.73130   0.08300   0.01867  Uani   1.00
C91    C     0.65040   0.65680   0.07640   0.01736  Uani   1.00
C92    C     0.82830   0.62300   0.10730   0.01668  Uani   1.00
C93    C     0.93120   0.65680   0.15250   0.01942  Uani   1.00
C94    C     0.81550   0.51120   0.05830   0.01989  Uani   1.00
H95    H     0.87070   0.46290   0.05120   0.02400  Uiso   1.00
C96    C     0.64020   0.54180   0.02930   0.02183  Uani   1.00
H97    H     0.57720   0.51290   0.00380   0.02600  Uiso   1.00
C98    C     0.72200   0.46940   0.01950   0.02215  Uani   1.00
H99    H     0.71410   0.39300   0.98700   0.02700  Uiso   1.00
C100   C     0.84010   0.93790   0.05920   0.01911  Uani   1.00
Sr101  Sr    0.89678   0.95277   0.86837   0.02108  Uani   1.00
Sr102  Sr    0.58838   0.97250   0.91577   0.02158  Uani   1.00
O103   O     0.92790   0.52800   0.55700   0.03232  Uani   1.00
O104   O     0.77640   0.58070   0.48960   0.02513  Uani   1.00
O105   O     0.55170   0.65190   0.56040   0.02250  Uani   1.00
O106   O     0.48820   0.83100   0.60770   0.02816  Uani   1.00
O107   O     0.99510   0.83850   0.60130   0.02811  Uani   1.00
O108   O     0.95100   0.82130   0.73660   0.02483  Uani   1.00
O109   O     0.59650   0.76670   0.82510   0.02924  Uani   1.00
O110   O     0.71570   0.90040   0.79930   0.02400  Uani   1.00
O111   O     0.95540   0.72670   0.92290   0.04428  Uani   1.00
H112   H     0.98230   0.69380   0.88140   0.05300  Uiso   1.00
H113   H     0.95530   0.68210   0.97030   0.05300  Uiso   1.00
O114   O     0.90250   0.12770   0.74780   0.03981  Uani   1.00
H115   H     0.84740   0.14930   0.71570   0.04800  Uiso   1.00
H116   H     0.92350   0.20430   0.75590   0.04800  Uiso   1.00
O117   O     0.39530   0.90230   0.90810   0.03576  Uani   1.00
H118   H     0.36670   0.95670   0.93690   0.05400  Uiso   1.00
H119   H     0.36620   0.90000   0.85310   0.05400  Uiso   1.00
O120   O     0.50170   0.02930   0.74970   0.04332  Uani   1.00
H121   H     0.48340   0.96690   0.71420   0.05200  Uiso   1.00
H122   H     0.46120   0.09080   0.73500   0.05200  Uiso   1.00
O123   O     0.66220   0.18280   0.87420   0.03166  Uani   1.00
H124   H     0.71980   0.20970   0.89710   0.03800  Uiso   1.00
H125   H     0.61370   0.22900   0.88310   0.03800  Uiso   1.00
O126   O     0.86120   0.18640   0.93500   0.03272  Uani   1.00
H127   H     0.90060   0.24220   0.92000   0.04000  Uiso   1.00
H128   H     0.89430   0.16270   0.98570   0.04000  Uiso   1.00
C129   C     0.83160   0.47380   0.70970   0.02560  Uani   1.00
H130   H     0.86850   0.40520   0.69400   0.03100  Uiso   1.00
C131   C     0.81120   0.57750   0.65110   0.01549  Uani   1.00
C132   C     0.79730   0.47200   0.79120   0.03271  Uani   1.00
H133   H     0.81070   0.40250   0.83030   0.03900  Uiso   1.00
C134   C     0.75920   0.68330   0.67490   0.01210  Uani   1.00
C135   C     0.74330   0.57430   0.81320   0.02726  Uani   1.00
H136   H     0.71780   0.57190   0.86660   0.03300  Uiso   1.00
C137   C     0.72600   0.68010   0.75820   0.01672  Uani   1.00
C138   C     0.67500   0.79060   0.79420   0.02213  Uani   1.00
C139   C     0.74550   0.80170   0.61790   0.01475  Uani   1.00
C140   C     0.55690   0.76870   0.58300   0.01867  Uani   1.00
C141   C     0.65040   0.84320   0.57640   0.01736  Uani   1.00
C142   C     0.82830   0.87700   0.60730   0.01668  Uani   1.00
C143   C     0.93120   0.84320   0.65250   0.01942  Uani   1.00
C144   C     0.81550   0.98880   0.55830   0.01989  Uani   1.00
H145   H     0.87070   0.03710   0.55120   0.02400  Uiso   1.00
C146   C     0.64020   0.95820   0.52930   0.02183  Uani   1.00
H147   H     0.57720   0.98710   0.50380   0.02600  Uiso   1.00
C148   C     0.72200   0.03060   0.51950   0.02215  Uani   1.00
H149   H     0.71410   0.10700   0.48700   0.02700  Uiso   1.00
C150   C     0.84010   0.56210   0.55920   0.01911  Uani   1.00
Sr151  Sr    0.10322   0.45277   0.63163   0.02108  Uani   1.00
Sr152  Sr    0.41162   0.47250   0.58423   0.02158  Uani   1.00
O153   O     0.07210   0.02800   0.94300   0.03232  Uani   1.00
O154   O     0.22360   0.08070   0.01040   0.02513  Uani   1.00
O155   O     0.44830   0.15190   0.93960   0.02250  Uani   1.00
O156   O     0.51180   0.33100   0.89230   0.02816  Uani   1.00
O157   O     0.00490   0.33850   0.89870   0.02811  Uani   1.00
O158   O     0.04900   0.32130   0.76340   0.02483  Uani   1.00
O159   O     0.40350   0.26670   0.67490   0.02924  Uani   1.00
O160   O     0.28430   0.40040   0.70070   0.02400  Uani   1.00
O161   O     0.04460   0.22670   0.57710   0.04428  Uani   1.00
H162   H     0.01770   0.19380   0.61860   0.05300  Uiso   1.00
H163   H     0.04470   0.18210   0.52970   0.05300  Uiso   1.00
O164   O     0.09750   0.62770   0.75220   0.03981  Uani   1.00
H165   H     0.15260   0.64930   0.78430   0.04800  Uiso   1.00
H166   H     0.07650   0.70430   0.74410   0.04800  Uiso   1.00
O167   O     0.60470   0.40230   0.59190   0.03576  Uani   1.00
H168   H     0.63330   0.45670   0.56310   0.05400  Uiso   1.00
H169   H     0.63380   0.40000   0.64690   0.05400  Uiso   1.00
O170   O     0.49830   0.52930   0.75030   0.04332  Uani   1.00
H171   H     0.51660   0.46690   0.78580   0.05200  Uiso   1.00
H172   H     0.53880   0.59080   0.76500   0.05200  Uiso   1.00
O173   O     0.33780   0.68280   0.62580   0.03166  Uani   1.00
H174   H     0.28020   0.70970   0.60290   0.03800  Uiso   1.00
H175   H     0.38630   0.72900   0.61690   0.03800  Uiso   1.00
O176   O     0.13880   0.68640   0.56500   0.03272  Uani   1.00
H177   H     0.09940   0.74220   0.58000   0.04000  Uiso   1.00
H178   H     0.10570   0.66270   0.51430   0.04000  Uiso   1.00
C179   C     0.16840   0.97380   0.79030   0.02560  Uani   1.00
H180   H     0.13150   0.90520   0.80600   0.03100  Uiso   1.00
C181   C     0.18880   0.07750   0.84890   0.01549  Uani   1.00
C182   C     0.20270   0.97200   0.70880   0.03271  Uani   1.00
H183   H     0.18930   0.90250   0.66970   0.03900  Uiso   1.00
C184   C     0.24080   0.18330   0.82510   0.01210  Uani   1.00
C185   C     0.25670   0.07430   0.68680   0.02726  Uani   1.00
H186   H     0.28220   0.07190   0.63340   0.03300  Uiso   1.00
C187   C     0.27400   0.18010   0.74180   0.01672  Uani   1.00
C188   C     0.32500   0.29060   0.70580   0.02213  Uani   1.00
C189   C     0.25450   0.30170   0.88210   0.01475  Uani   1.00
C190   C     0.44310   0.26870   0.91700   0.01867  Uani   1.00
C191   C     0.34960   0.34320   0.92360   0.01736  Uani   1.00
C192   C     0.17170   0.37700   0.89270   0.01668  Uani   1.00
C193   C     0.06880   0.34320   0.84750   0.01942  Uani   1.00
C194   C     0.18450   0.48880   0.94170   0.01989  Uani   1.00
H195   H     0.12930   0.53710   0.94880   0.02400  Uiso   1.00
C196   C     0.35980   0.45820   0.97070   0.02183  Uani   1.00
H197   H     0.42280   0.48710   0.99620   0.02600  Uiso   1.00
C198   C     0.27800   0.53060   0.98050   0.02215  Uani   1.00
H199   H     0.28590   0.60700   0.01300   0.02700  Uiso   1.00
C200   C     0.15990   0.06210   0.94080   0.01911  Uani   1.00
loop_
_atom_site_aniso_label
_atom_site_aniso_U_11
_atom_site_aniso_U_22
_atom_site_aniso_U_33
_atom_site_aniso_U_12
_atom_site_aniso_U_13
_atom_site_aniso_U_23
Sr1       0.01550   0.02800   0.02100  -0.00170   0.00670   0.00080
Sr2       0.01760   0.02370   0.02590   0.00080   0.01060  -0.00240
O3        0.01600   0.05000   0.03200   0.00800   0.00710  -0.00700
O4        0.02200   0.03700   0.01700   0.00200   0.00510   0.00110
O5        0.01600   0.02400   0.02900  -0.00300   0.00810  -0.00220
O6        0.01700   0.02700   0.04400   0.00300   0.01500  -0.00200
O7        0.01300   0.04300   0.03000   0.00000   0.00840  -0.00400
O8        0.01900   0.03800   0.01700   0.00400   0.00190   0.00270
O9        0.02400   0.03000   0.03900  -0.00400   0.02000  -0.00500
O10       0.02100   0.02600   0.02600  -0.00200   0.00690  -0.00380
O11       0.06700   0.04200   0.02700   0.01000   0.01700   0.00500
O14       0.04300   0.03400   0.03900  -0.00900  -0.00200   0.00900
O17       0.02800   0.04400   0.03400   0.00300   0.00200  -0.00300
O20       0.03800   0.03400   0.05100   0.01100  -0.01100  -0.01300
O23       0.01800   0.03300   0.04700  -0.00500   0.01400  -0.00500
O26       0.02800   0.03300   0.03900  -0.00400   0.01100   0.00900
C29       0.02100   0.02300   0.03500   0.01000   0.01100  -0.00000
C31       0.01300   0.01800   0.01600  -0.00400   0.00400  -0.00200
C32       0.03400   0.03800   0.03100   0.01000   0.01900   0.01800
C34       0.00500   0.01600   0.01500  -0.00200   0.00100  -0.00100
C35       0.03100   0.03500   0.02000   0.00500   0.01600   0.00900
C37       0.01200   0.01800   0.02200   0.00000   0.00800  -0.00100
C38       0.02000   0.03200   0.01400   0.00200   0.00200  -0.00100
C39       0.01300   0.01900   0.01500   0.00200   0.01000  -0.00300
C40       0.01500   0.02400   0.01600   0.00200  -0.00000   0.00600
C41       0.00800   0.02500   0.02000  -0.00300   0.00500  -0.00200
C42       0.01700   0.02400   0.01000   0.00000   0.00500  -0.00400
C43       0.01600   0.01400   0.02900  -0.00300   0.00600  -0.00800
C44       0.01800   0.02100   0.02300  -0.00700   0.01000   0.00200
C46       0.01600   0.02500   0.02500   0.01000   0.00500   0.00900
C48       0.03000   0.01400   0.02400   0.00100   0.00900   0.00300
C50       0.01500   0.02000   0.02400   0.00200   0.00800  -0.00000
Sr51      0.01550   0.02800   0.02100   0.00170   0.00670  -0.00080
Sr52      0.01760   0.02370   0.02590  -0.00080   0.01060   0.00240
O53       0.01600   0.05000   0.03200  -0.00800   0.00710   0.00700
O54       0.02200   0.03700   0.01700  -0.00200   0.00510  -0.00110
O55       0.01600   0.02400   0.02900   0.00300   0.00810   0.00220
O56       0.01700   0.02700   0.04400  -0.00300   0.01500   0.00200
O57       0.01300   0.04300   0.03000   0.00000   0.00840   0.00400
O58       0.01900   0.03800   0.01700  -0.00400   0.00190  -0.00270
O59       0.02400   0.03000   0.03900   0.00400   0.02000   0.00500
O60       0.02100   0.02600   0.02600   0.00200   0.00690   0.00380
O61       0.06700   0.04200   0.02700  -0.01000   0.01700  -0.00500
O64       0.04300   0.03400   0.03900   0.00900  -0.00200  -0.00900
O67       0.02800   0.04400   0.03400  -0.00300   0.00200   0.00300
O70       0.03800   0.03400   0.05100  -0.01100  -0.01100   0.01300
O73       0.01800   0.03300   0.04700   0.00500   0.01400   0.00500
O76       0.02800   0.03300   0.03900   0.00400   0.01100  -0.00900
C79       0.02100   0.02300   0.03500  -0.01000   0.01100   0.00000
C81       0.01300   0.01800   0.01600   0.00400   0.00400   0.00200
C82       0.03400   0.03800   0.03100  -0.01000   0.01900  -0.01800
C84       0.00500   0.01600   0.01500   0.00200   0.00100   0.00100
C85       0.03100   0.03500   0.02000  -0.00500   0.01600  -0.00900
C87       0.01200   0.01800   0.02200   0.00000   0.00800   0.00100
C88       0.02000   0.03200   0.01400  -0.00200   0.00200   0.00100
C89       0.01300   0.01900   0.01500  -0.00200   0.01000   0.00300
C90       0.01500   0.02400   0.01600  -0.00200  -0.00000  -0.00600
C91       0.00800   0.02500   0.02000   0.00300   0.00500   0.00200
C92       0.01700   0.02400   0.01000   0.00000   0.00500   0.00400
C93       0.01600   0.01400   0.02900   0.00300   0.00600   0.00800
C94       0.01800   0.02100   0.02300   0.00700   0.01000  -0.00200
C96       0.01600   0.02500   0.02500  -0.01000   0.00500  -0.00900
C98       0.03000   0.01400   0.02400  -0.00100   0.00900  -0.00300
C100      0.01500   0.02000   0.02400  -0.00200   0.00800   0.00000
Sr101     0.01550   0.02800   0.02100  -0.00170   0.00670   0.00080
Sr102     0.01760   0.02370   0.02590   0.00080   0.01060  -0.00240
O103      0.01600   0.05000   0.03200   0.00800   0.00710  -0.00700
O104      0.02200   0.03700   0.01700   0.00200   0.00510   0.00110
O105      0.01600   0.02400   0.02900  -0.00300   0.00810  -0.00220
O106      0.01700   0.02700   0.04400   0.00300   0.01500  -0.00200
O107      0.01300   0.04300   0.03000   0.00000   0.00840  -0.00400
O108      0.01900   0.03800   0.01700   0.00400   0.00190   0.00270
O109      0.02400   0.03000   0.03900  -0.00400   0.02000  -0.00500
O110      0.02100   0.02600   0.02600  -0.00200   0.00690  -0.00380
O111      0.06700   0.04200   0.02700   0.01000   0.01700   0.00500
O114      0.04300   0.03400   0.03900  -0.00900  -0.00200   0.00900
O117      0.02800   0.04400   0.03400   0.00300   0.00200  -0.00300
O120      0.03800   0.03400   0.05100   0.01100  -0.01100  -0.01300
O123      0.01800   0.03300   0.04700  -0.00500   0.01400  -0.00500
O126      0.02800   0.03300   0.03900  -0.00400   0.01100   0.00900
C129      0.02100   0.02300   0.03500   0.01000   0.01100  -0.00000
C131      0.01300   0.01800   0.01600  -0.00400   0.00400  -0.00200
C132      0.03400   0.03800   0.03100   0.01000   0.01900   0.01800
C134      0.00500   0.01600   0.01500  -0.00200   0.00100  -0.00100
C135      0.03100   0.03500   0.02000   0.00500   0.01600   0.00900
C137      0.01200   0.01800   0.02200   0.00000   0.00800  -0.00100
C138      0.02000   0.03200   0.01400   0.00200   0.00200  -0.00100
C139      0.01300   0.01900   0.01500   0.00200   0.01000  -0.00300
C140      0.01500   0.02400   0.01600   0.00200  -0.00000   0.00600
C141      0.00800   0.02500   0.02000  -0.00300   0.00500  -0.00200
C142      0.01700   0.02400   0.01000   0.00000   0.00500  -0.00400
C143      0.01600   0.01400   0.02900  -0.00300   0.00600  -0.00800
C144      0.01800   0.02100   0.02300  -0.00700   0.01000   0.00200
C146      0.01600   0.02500   0.02500   0.01000   0.00500   0.00900
C148      0.03000   0.01400   0.02400   0.00100   0.00900   0.00300
C150      0.01500   0.02000   0.02400   0.00200   0.00800  -0.00000
Sr151     0.01550   0.02800   0.02100   0.00170   0.00670  -0.00080
Sr152     0.01760   0.02370   0.02590  -0.00080   0.01060   0.00240
O153      0.01600   0.05000   0.03200  -0.00800   0.00710   0.00700
O154      0.02200   0.03700   0.01700  -0.00200   0.00510  -0.00110
O155      0.01600   0.02400   0.02900   0.00300   0.00810   0.00220
O156      0.01700   0.02700   0.04400  -0.00300   0.01500   0.00200
O157      0.01300   0.04300   0.03000   0.00000   0.00840   0.00400
O158      0.01900   0.03800   0.01700  -0.00400   0.00190  -0.00270
O159      0.02400   0.03000   0.03900   0.00400   0.02000   0.00500
O160      0.02100   0.02600   0.02600   0.00200   0.00690   0.00380
O161      0.06700   0.04200   0.02700  -0.01000   0.01700  -0.00500
O164      0.04300   0.03400   0.03900   0.00900  -0.00200  -0.00900
O167      0.02800   0.04400   0.03400  -0.00300   0.00200   0.00300
O170      0.03800   0.03400   0.05100  -0.01100  -0.01100   0.01300
O173      0.01800   0.03300   0.04700   0.00500   0.01400   0.00500
O176      0.02800   0.03300   0.03900   0.00400   0.01100  -0.00900
C179      0.02100   0.02300   0.03500  -0.01000   0.01100   0.00000
C181      0.01300   0.01800   0.01600   0.00400   0.00400   0.00200
C182      0.03400   0.03800   0.03100  -0.01000   0.01900  -0.01800
C184      0.00500   0.01600   0.01500   0.00200   0.00100   0.00100
C185      0.03100   0.03500   0.02000  -0.00500   0.01600  -0.00900
C187      0.01200   0.01800   0.02200   0.00000   0.00800   0.00100
C188      0.02000   0.03200   0.01400  -0.00200   0.00200   0.00100
C189      0.01300   0.01900   0.01500  -0.00200   0.01000   0.00300
C190      0.01500   0.02400   0.01600  -0.00200  -0.00000  -0.00600
C191      0.00800   0.02500   0.02000   0.00300   0.00500   0.00200
C192      0.01700   0.02400   0.01000   0.00000   0.00500   0.00400
C193      0.01600   0.01400   0.02900   0.00300   0.00600   0.00800
C194      0.01800   0.02100   0.02300   0.00700   0.01000  -0.00200
C196      0.01600   0.02500   0.02500  -0.01000   0.00500  -0.00900
C198      0.03000   0.01400   0.02400  -0.00100   0.00900  -0.00300
C200      0.01500   0.02000   0.02400  -0.00200   0.00800   0.00000
loop_
_geom_bond_atom_site_label_1
_geom_bond_atom_site_label_2
_geom_bond_distance
_geom_bond_site_symmetry_2
_ccdc_geom_bond_type
Sr1    O8      2.619   .     S
Sr1    O10     2.569   .     S
Sr1    O11     2.576   .     S
Sr1    O14     2.580   1_545 S
Sr1    O26     2.710   1_545 S
Sr1    O53     2.583   1_445 S
Sr1    O153    2.793   1_554 S
Sr1    O154    2.685   .     S
Sr2    O9      2.554   .     S
Sr2    O17     2.725   .     S
Sr2    O20     2.629   1_545 S
Sr2    O23     2.538   1_545 S
Sr2    O55     2.747   1_545 S
Sr2    O155    2.651   1_554 S
Sr2    O117    2.920   1_544 S
Sr2    O10     2.782   .     S
Sr2    O154    2.673   .     S
O3     C50     1.259   .     S
O3     Sr51    2.583   1_455 S
O3     Sr151   2.793   .     S
O4     C50     1.250   .     S
O4     Sr152   2.673   .     S
O4     Sr151   2.685   .     S
O5     C40     1.263   .     S
O5     Sr52    2.747   .     S
O5     Sr152   2.651   .     S
O6     C40     1.252   .     S
O7     C43     1.264   .     S
O8     C43     1.263   .     S
O9     C38     1.268   .     S
O10    C38     1.270   .     S
O11    H12     0.850   .     S
O11    H13     0.850   .     S
O14    Sr1     2.580   1_565 S
O14    H15     0.850   .     S
O14    H16     0.850   .     S
O17    H18     0.850   .     S
O17    H19     0.850   .     S
O17    Sr102   2.920   1_544 S
O20    Sr2     2.629   1_565 S
O20    H21     0.850   1_565 S
O20    H22     0.851   .     S
H21    O20     0.850   1_545 S
O23    Sr2     2.538   1_565 S
O23    H24     0.850   .     S
O23    H25     0.850   .     S
O26    Sr1     2.710   1_565 S
O26    H27     0.850   .     S
O26    H28     0.850   .     S
C29    H30     0.930   .     S
C29    C31     1.390   .     S
C29    C32     1.386   .     S
C31    C34     1.393   .     S
C31    C50     1.509   .     S
C32    H33     0.930   .     S
C32    C35     1.371   .     S
C34    C37     1.404   .     S
C34    C39     1.494   .     S
C35    H36     0.929   .     S
C35    C37     1.373   .     S
C37    C38     1.497   .     S
C39    C41     1.407   .     S
C39    C42     1.411   .     S
C40    C41     1.515   .     S
C41    C46     1.386   .     S
C42    C43     1.493   .     S
C42    C44     1.373   .     S
C44    H45     0.930   1_545 S
C44    C48     1.379   1_545 S
H45    C44     0.930   1_565 S
C46    H47     0.929   .     S
C46    C48     1.380   1_545 S
C48    C44     1.379   1_565 S
C48    H49     0.930   .     S
C48    C46     1.380   1_565 S
Sr51   O58     2.619   .     S
Sr51   O60     2.569   .     S
Sr51   O61     2.576   .     S
Sr51   O64     2.580   .     S
Sr51   O76     2.710   .     S
Sr51   O3      2.583   1_655 S
Sr51   O103    2.793   .     S
Sr51   O104    2.685   .     S
Sr52   O59     2.554   .     S
Sr52   O67     2.725   .     S
Sr52   O70     2.629   .     S
Sr52   O73     2.538   .     S
Sr52   O105    2.651   .     S
Sr52   O167    2.920   .     S
Sr52   O60     2.782   .     S
Sr52   O104    2.673   .     S
O53    C100    1.259   .     S
O53    Sr1     2.583   1_665 S
O53    Sr101   2.793   1_554 S
O54    C100    1.250   1_556 S
O54    Sr102   2.673   .     S
O54    Sr101   2.685   .     S
O55    C90     1.263   .     S
O55    Sr2     2.747   1_565 S
O55    Sr102   2.651   1_554 S
O56    C90     1.252   .     S
O57    C93     1.264   .     S
O58    C93     1.263   .     S
O59    C88     1.268   .     S
O60    C88     1.270   .     S
O61    H62     0.850   .     S
O61    H63     0.850   .     S
O64    H65     0.850   .     S
O64    H66     0.850   .     S
O67    H68     0.850   .     S
O67    H69     0.850   .     S
O67    Sr152   2.920   .     S
O70    H71     0.850   .     S
O70    H72     0.851   .     S
O73    H74     0.850   .     S
O73    H75     0.850   .     S
O76    H77     0.850   .     S
O76    H78     0.850   .     S
C79    H80     0.930   .     S
C79    C81     1.390   1_545 S
C79    C82     1.386   .     S
C81    C79     1.390   1_565 S
C81    C84     1.393   .     S
C81    C100    1.509   .     S
C82    H83     0.930   .     S
C82    C85     1.371   1_545 S
C84    C87     1.404   .     S
C84    C89     1.494   .     S
C85    C82     1.371   1_565 S
C85    H86     0.929   .     S
C85    C87     1.373   .     S
C87    C88     1.497   .     S
C89    C91     1.407   .     S
C89    C92     1.411   .     S
C90    C91     1.515   .     S
C91    C96     1.386   .     S
C92    C93     1.493   .     S
C92    C94     1.373   .     S
C94    H95     0.930   .     S
C94    C98     1.379   .     S
C96    H97     0.929   .     S
C96    C98     1.380   .     S
C98    H99     0.930   1_554 S
H99    C98     0.930   1_556 S
C100   O54     1.250   1_554 S
Sr101  O108    2.619   .     S
Sr101  O110    2.569   .     S
Sr101  O111    2.576   .     S
Sr101  O114    2.580   1_565 S
Sr101  O126    2.710   1_565 S
Sr101  O153    2.583   1_665 S
Sr101  O53     2.793   1_556 S
Sr102  O109    2.554   .     S
Sr102  O117    2.725   .     S
Sr102  O120    2.629   1_565 S
Sr102  O123    2.538   1_565 S
Sr102  O155    2.747   1_565 S
Sr102  O55     2.651   1_556 S
Sr102  O17     2.920   1_566 S
Sr102  O110    2.782   .     S
O103   C150    1.259   .     S
O103   Sr151   2.583   1_655 S
O104   C150    1.250   .     S
O105   C140    1.263   .     S
O105   Sr152   2.747   .     S
O106   C140    1.252   .     S
O107   C143    1.264   .     S
O108   C143    1.263   .     S
O109   C138    1.268   .     S
O110   C138    1.270   .     S
O111   H112    0.850   .     S
O111   H113    0.850   .     S
O114   Sr101   2.580   1_545 S
O114   H115    0.850   .     S
O114   H116    0.850   .     S
O117   H118    0.850   .     S
O117   H119    0.850   .     S
O117   Sr2     2.920   1_566 S
O120   Sr102   2.629   1_545 S
O120   H121    0.850   1_545 S
O120   H122    0.851   .     S
H121   O120    0.850   1_565 S
O123   Sr102   2.538   1_545 S
O123   H124    0.850   .     S
O123   H125    0.850   .     S
O126   Sr101   2.710   1_545 S
O126   H127    0.850   .     S
O126   H128    0.850   .     S
C129   H130    0.930   .     S
C129   C131    1.390   .     S
C129   C132    1.386   .     S
C131   C134    1.393   .     S
C131   C150    1.509   .     S
C132   H133    0.930   .     S
C132   C135    1.371   .     S
C134   C137    1.404   .     S
C134   C139    1.494   .     S
C135   H136    0.929   .     S
C135   C137    1.373   .     S
C137   C138    1.497   .     S
C139   C141    1.407   .     S
C139   C142    1.411   .     S
C140   C141    1.515   .     S
C141   C146    1.386   .     S
C142   C143    1.493   .     S
C142   C144    1.373   .     S
C144   H145    0.930   1_565 S
C144   C148    1.379   1_565 S
H145   C144    0.930   1_545 S
C146   H147    0.929   .     S
C146   C148    1.380   1_565 S
C148   C144    1.379   1_545 S
C148   H149    0.930   .     S
C148   C146    1.380   1_545 S
Sr151  O158    2.619   .     S
Sr151  O160    2.569   .     S
Sr151  O161    2.576   .     S
Sr151  O164    2.580   .     S
Sr151  O176    2.710   .     S
Sr151  O103    2.583   1_455 S
Sr152  O159    2.554   .     S
Sr152  O167    2.725   .     S
Sr152  O170    2.629   .     S
Sr152  O173    2.538   .     S
Sr152  O160    2.782   .     S
O153   C200    1.259   .     S
O153   Sr101   2.583   1_445 S
O153   Sr1     2.793   1_556 S
O154   C200    1.250   1_554 S
O155   C190    1.263   .     S
O155   Sr102   2.747   1_545 S
O155   Sr2     2.651   1_556 S
O156   C190    1.252   .     S
O157   C193    1.264   .     S
O158   C193    1.263   .     S
O159   C188    1.268   .     S
O160   C188    1.270   .     S
O161   H162    0.850   .     S
O161   H163    0.850   .     S
O164   H165    0.850   .     S
O164   H166    0.850   .     S
O167   H168    0.850   .     S
O167   H169    0.850   .     S
O170   H171    0.850   .     S
O170   H172    0.851   .     S
O173   H174    0.850   .     S
O173   H175    0.850   .     S
O176   H177    0.850   .     S
O176   H178    0.850   .     S
C179   H180    0.930   .     S
C179   C181    1.390   1_565 S
C179   C182    1.386   .     S
C181   C179    1.390   1_545 S
C181   C184    1.393   .     S
C181   C200    1.509   .     S
C182   H183    0.930   .     S
C182   C185    1.371   1_565 S
C184   C187    1.404   .     S
C184   C189    1.494   .     S
C185   C182    1.371   1_545 S
C185   H186    0.929   .     S
C185   C187    1.373   .     S
C187   C188    1.497   .     S
C189   C191    1.407   .     S
C189   C192    1.411   .     S
C190   C191    1.515   .     S
C191   C196    1.386   .     S
C192   C193    1.493   .     S
C192   C194    1.373   .     S
C194   H195    0.930   .     S
C194   C198    1.379   .     S
C196   H197    0.929   .     S
C196   C198    1.380   .     S
C198   H199    0.930   1_556 S
H199   C198    0.930   1_554 S
C200   O154    1.250   1_556 S
