data_IBICAZ_FSR
_audit_creation_date              2024-06-11
_audit_creation_method            'Materials Studio'
_symmetry_space_group_name_H-M    'P1'
_symmetry_Int_Tables_number       1
_symmetry_cell_setting            triclinic
loop_
_symmetry_equiv_pos_as_xyz
  x,y,z
_cell_length_a                    17.6910
_cell_length_b                    17.6910
_cell_length_c                    10.5617
_cell_angle_alpha                 90.0000
_cell_angle_beta                  90.0000
_cell_angle_gamma                 120.0000
loop_
_atom_site_label
_atom_site_type_symbol
_atom_site_fract_x
_atom_site_fract_y
_atom_site_fract_z
_atom_site_U_iso_or_equiv
_atom_site_adp_type
_atom_site_occupancy
Zn1    Zn    0.45961   0.53061   0.11764   0.02908  Uani   1.00
Cl2    Cl    0.54491   0.67598   0.11882   0.06972  Uani   1.00
O3     O     0.48509   0.51151   0.31200   0.03544  Uani   1.00
O4     O     0.56639   0.47247   0.42350   0.04546  Uani   1.00
N5     N     0.48480   0.15490   0.98910   0.03699  Uani   1.00
N6     N     0.49753   0.43686   0.09680   0.02729  Uani   1.00
H7     H     0.53110   0.44990   0.02600   0.03300  Uiso   1.00
C8     C     0.50290   0.22070   0.90750   0.05080  Uani   1.00
H9     H     0.53210   0.22430   0.83260   0.06100  Uiso   1.00
C10    C     0.44130   0.15060   0.09460   0.04254  Uani   1.00
H11    H     0.42750   0.10480   0.15030   0.05100  Uiso   1.00
C12    C     0.41580   0.21010   0.12570   0.04377  Uani   1.00
H13    H     0.38550   0.20410   0.20050   0.05300  Uiso   1.00
C14    C     0.43560   0.27910   0.04460   0.03799  Uani   1.00
C15    C     0.47950   0.28290   0.93200   0.05527  Uani   1.00
H16    H     0.49280   0.32730   0.87390   0.06600  Uiso   1.00
C17    C     0.41670   0.35090   0.07700   0.03689  Uani   1.00
H18    H     0.38290   0.35640   0.00920   0.04400  Uiso   1.00
H19    H     0.38160   0.33510   0.15340   0.04400  Uiso   1.00
C20    C     0.53190   0.47780   0.32310   0.02814  Uani   1.00
C21    C     0.54949   0.43610   0.20620   0.02957  Uani   1.00
H22    H     0.52940   0.37500   0.22690   0.03500  Uiso   1.00
C23    C     0.64740   0.48040   0.18000   0.04102  Uani   1.00
H24    H     0.67560   0.48100   0.26020   0.04900  Uiso   1.00
C25    C     0.68580   0.57410   0.13900   0.06462  Uani   1.00
H26    H     0.74580   0.59690   0.11550   0.09600  Uiso   1.00
H27    H     0.68240   0.60780   0.20760   0.09600  Uiso   1.00
H28    H     0.65380   0.57720   0.06770   0.09600  Uiso   1.00
C29    C     0.67070   0.42970   0.08450   0.06444  Uani   1.00
H30    H     0.64760   0.43100   0.00280   0.09700  Uiso   1.00
H31    H     0.64610   0.37020   0.11210   0.09700  Uiso   1.00
H32    H     0.73300   0.45610   0.07900   0.09700  Uiso   1.00
Zn33   Zn    0.46939   0.92900   0.45097   0.02908  Uani   1.00
Cl34   Cl    0.32402   0.86893   0.45215   0.06972  Uani   1.00
O35    O     0.48849   0.97358   0.64533   0.03544  Uani   1.00
O36    O     0.52753   0.09392   0.75683   0.04546  Uani   1.00
N37    N     0.84510   0.32990   0.32243   0.03699  Uani   1.00
N38    N     0.56314   0.06067   0.43013   0.02729  Uani   1.00
H39    H     0.55010   0.08120   0.35933   0.03300  Uiso   1.00
C40    C     0.77930   0.28220   0.24083   0.05080  Uani   1.00
H41    H     0.77570   0.30780   0.16593   0.06100  Uiso   1.00
C42    C     0.84940   0.29070   0.42793   0.04254  Uani   1.00
H43    H     0.89520   0.32270   0.48363   0.05100  Uiso   1.00
C44    C     0.78990   0.20570   0.45903   0.04377  Uani   1.00
H45    H     0.79590   0.18140   0.53383   0.05300  Uiso   1.00
C46    C     0.72090   0.15650   0.37793   0.03799  Uani   1.00
C47    C     0.71710   0.19660   0.26533   0.05527  Uani   1.00
H48    H     0.67270   0.16550   0.20723   0.06600  Uiso   1.00
C49    C     0.64910   0.06580   0.41033   0.03689  Uani   1.00
H50    H     0.64360   0.02650   0.34253   0.04400  Uiso   1.00
H51    H     0.66490   0.04650   0.48673   0.04400  Uiso   1.00
C52    C     0.52220   0.05410   0.65643   0.02814  Uani   1.00
C53    C     0.56390   0.11339   0.53953   0.02957  Uani   1.00
H54    H     0.62500   0.15440   0.56023   0.03500  Uiso   1.00
C55    C     0.51960   0.16700   0.51333   0.04102  Uani   1.00
H56    H     0.51900   0.19460   0.59353   0.04900  Uiso   1.00
C57    C     0.42590   0.11170   0.47233   0.06462  Uani   1.00
H58    H     0.40310   0.14890   0.44883   0.09600  Uiso   1.00
H59    H     0.39220   0.07460   0.54093   0.09600  Uiso   1.00
H60    H     0.42280   0.07660   0.40103   0.09600  Uiso   1.00
C61    C     0.57030   0.24100   0.41783   0.06444  Uani   1.00
H62    H     0.56900   0.21660   0.33613   0.09700  Uiso   1.00
H63    H     0.62980   0.27590   0.44543   0.09700  Uiso   1.00
H64    H     0.54390   0.27690   0.41233   0.09700  Uiso   1.00
Zn65   Zn    0.07100   0.54039   0.78431   0.02908  Uani   1.00
Cl66   Cl    0.13107   0.45509   0.78549   0.06972  Uani   1.00
O67    O     0.02642   0.51491   0.97867   0.03544  Uani   1.00
O68    O     0.90608   0.43361   0.09017   0.04546  Uani   1.00
N69    N     0.67010   0.51520   0.65577   0.03699  Uani   1.00
N70    N     0.93933   0.50247   0.76347   0.02729  Uani   1.00
H71    H     0.91880   0.46890   0.69267   0.03300  Uiso   1.00
C72    C     0.71780   0.49710   0.57417   0.05080  Uani   1.00
H73    H     0.69220   0.46790   0.49927   0.06100  Uiso   1.00
C74    C     0.70930   0.55870   0.76127   0.04254  Uani   1.00
H75    H     0.67730   0.57250   0.81697   0.05100  Uiso   1.00
C76    C     0.79430   0.58420   0.79237   0.04377  Uani   1.00
H77    H     0.81860   0.61450   0.86717   0.05300  Uiso   1.00
C78    C     0.84350   0.56440   0.71127   0.03799  Uani   1.00
C79    C     0.80340   0.52050   0.59867   0.05527  Uani   1.00
H80    H     0.83450   0.50720   0.54057   0.06600  Uiso   1.00
C81    C     0.93420   0.58330   0.74367   0.03689  Uani   1.00
H82    H     0.97350   0.61710   0.67587   0.04400  Uiso   1.00
H83    H     0.95350   0.61840   0.82007   0.04400  Uiso   1.00
C84    C     0.94590   0.46810   0.98977   0.02814  Uani   1.00
C85    C     0.88661   0.45051   0.87287   0.02957  Uani   1.00
H86    H     0.84560   0.47060   0.89357   0.03500  Uiso   1.00
C87    C     0.83300   0.35260   0.84667   0.04102  Uani   1.00
H88    H     0.80540   0.32440   0.92687   0.04900  Uiso   1.00
C89    C     0.88830   0.31420   0.80567   0.06462  Uani   1.00
H90    H     0.85110   0.25420   0.78217   0.09600  Uiso   1.00
H91    H     0.92540   0.31760   0.87427   0.09600  Uiso   1.00
H92    H     0.92340   0.34620   0.73437   0.09600  Uiso   1.00
C93    C     0.75900   0.32930   0.75117   0.06444  Uani   1.00
H94    H     0.78340   0.35240   0.66947   0.09700  Uiso   1.00
H95    H     0.72410   0.35390   0.77877   0.09700  Uiso   1.00
H96    H     0.72310   0.26700   0.74567   0.09700  Uiso   1.00
Zn97   Zn    0.54039   0.46939   0.61764   0.02908  Uani   1.00
Cl98   Cl    0.45509   0.32402   0.61882   0.06972  Uani   1.00
O99    O     0.51491   0.48849   0.81200   0.03544  Uani   1.00
O100   O     0.43361   0.52753   0.92350   0.04546  Uani   1.00
N101   N     0.51520   0.84510   0.48910   0.03699  Uani   1.00
N102   N     0.50247   0.56314   0.59680   0.02729  Uani   1.00
H103   H     0.46890   0.55010   0.52600   0.03300  Uiso   1.00
C104   C     0.49710   0.77930   0.40750   0.05080  Uani   1.00
H105   H     0.46790   0.77570   0.33260   0.06100  Uiso   1.00
C106   C     0.55870   0.84940   0.59460   0.04254  Uani   1.00
H107   H     0.57250   0.89520   0.65030   0.05100  Uiso   1.00
C108   C     0.58420   0.78990   0.62570   0.04377  Uani   1.00
H109   H     0.61450   0.79590   0.70050   0.05300  Uiso   1.00
C110   C     0.56440   0.72090   0.54460   0.03799  Uani   1.00
C111   C     0.52050   0.71710   0.43200   0.05527  Uani   1.00
H112   H     0.50720   0.67270   0.37390   0.06600  Uiso   1.00
C113   C     0.58330   0.64910   0.57700   0.03689  Uani   1.00
H114   H     0.61710   0.64360   0.50920   0.04400  Uiso   1.00
H115   H     0.61840   0.66490   0.65340   0.04400  Uiso   1.00
C116   C     0.46810   0.52220   0.82310   0.02814  Uani   1.00
C117   C     0.45051   0.56390   0.70620   0.02957  Uani   1.00
H118   H     0.47060   0.62500   0.72690   0.03500  Uiso   1.00
C119   C     0.35260   0.51960   0.68000   0.04102  Uani   1.00
H120   H     0.32440   0.51900   0.76020   0.04900  Uiso   1.00
C121   C     0.31420   0.42590   0.63900   0.06462  Uani   1.00
H122   H     0.25420   0.40310   0.61550   0.09600  Uiso   1.00
H123   H     0.31760   0.39220   0.70760   0.09600  Uiso   1.00
H124   H     0.34620   0.42280   0.56770   0.09600  Uiso   1.00
C125   C     0.32930   0.57030   0.58450   0.06444  Uani   1.00
H126   H     0.35240   0.56900   0.50280   0.09700  Uiso   1.00
H127   H     0.35390   0.62980   0.61210   0.09700  Uiso   1.00
H128   H     0.26700   0.54390   0.57900   0.09700  Uiso   1.00
Zn129  Zn    0.53061   0.07100   0.95097   0.02908  Uani   1.00
Cl130  Cl    0.67598   0.13107   0.95215   0.06972  Uani   1.00
O131   O     0.51151   0.02642   0.14533   0.03544  Uani   1.00
O132   O     0.47247   0.90608   0.25683   0.04546  Uani   1.00
N133   N     0.15490   0.67010   0.82243   0.03699  Uani   1.00
N134   N     0.43686   0.93933   0.93013   0.02729  Uani   1.00
H135   H     0.44990   0.91880   0.85933   0.03300  Uiso   1.00
C136   C     0.22070   0.71780   0.74083   0.05080  Uani   1.00
H137   H     0.22430   0.69220   0.66593   0.06100  Uiso   1.00
C138   C     0.15060   0.70930   0.92793   0.04254  Uani   1.00
H139   H     0.10480   0.67730   0.98363   0.05100  Uiso   1.00
C140   C     0.21010   0.79430   0.95903   0.04377  Uani   1.00
H141   H     0.20410   0.81860   0.03383   0.05300  Uiso   1.00
C142   C     0.27910   0.84350   0.87793   0.03799  Uani   1.00
C143   C     0.28290   0.80340   0.76533   0.05527  Uani   1.00
H144   H     0.32730   0.83450   0.70723   0.06600  Uiso   1.00
C145   C     0.35090   0.93420   0.91033   0.03689  Uani   1.00
H146   H     0.35640   0.97350   0.84253   0.04400  Uiso   1.00
H147   H     0.33510   0.95350   0.98673   0.04400  Uiso   1.00
C148   C     0.47780   0.94590   0.15643   0.02814  Uani   1.00
C149   C     0.43610   0.88661   0.03953   0.02957  Uani   1.00
H150   H     0.37500   0.84560   0.06023   0.03500  Uiso   1.00
C151   C     0.48040   0.83300   0.01333   0.04102  Uani   1.00
H152   H     0.48100   0.80540   0.09353   0.04900  Uiso   1.00
C153   C     0.57410   0.88830   0.97233   0.06462  Uani   1.00
H154   H     0.59690   0.85110   0.94883   0.09600  Uiso   1.00
H155   H     0.60780   0.92540   0.04093   0.09600  Uiso   1.00
H156   H     0.57720   0.92340   0.90103   0.09600  Uiso   1.00
C157   C     0.42970   0.75900   0.91783   0.06444  Uani   1.00
H158   H     0.43100   0.78340   0.83613   0.09700  Uiso   1.00
H159   H     0.37020   0.72410   0.94543   0.09700  Uiso   1.00
H160   H     0.45610   0.72310   0.91233   0.09700  Uiso   1.00
Zn161  Zn    0.92900   0.45961   0.28431   0.02908  Uani   1.00
Cl162  Cl    0.86893   0.54491   0.28549   0.06972  Uani   1.00
O163   O     0.97358   0.48509   0.47867   0.03544  Uani   1.00
O164   O     0.09392   0.56639   0.59017   0.04546  Uani   1.00
N165   N     0.32990   0.48480   0.15577   0.03699  Uani   1.00
N166   N     0.06067   0.49753   0.26347   0.02729  Uani   1.00
H167   H     0.08120   0.53110   0.19267   0.03300  Uiso   1.00
C168   C     0.28220   0.50290   0.07417   0.05080  Uani   1.00
H169   H     0.30780   0.53210   0.99927   0.06100  Uiso   1.00
C170   C     0.29070   0.44130   0.26127   0.04254  Uani   1.00
H171   H     0.32270   0.42750   0.31697   0.05100  Uiso   1.00
C172   C     0.20570   0.41580   0.29237   0.04377  Uani   1.00
H173   H     0.18140   0.38550   0.36717   0.05300  Uiso   1.00
C174   C     0.15650   0.43560   0.21127   0.03799  Uani   1.00
C175   C     0.19660   0.47950   0.09867   0.05527  Uani   1.00
H176   H     0.16550   0.49280   0.04057   0.06600  Uiso   1.00
C177   C     0.06580   0.41670   0.24367   0.03689  Uani   1.00
H178   H     0.02650   0.38290   0.17587   0.04400  Uiso   1.00
H179   H     0.04650   0.38160   0.32007   0.04400  Uiso   1.00
C180   C     0.05410   0.53190   0.48977   0.02814  Uani   1.00
C181   C     0.11339   0.54949   0.37287   0.02957  Uani   1.00
H182   H     0.15440   0.52940   0.39357   0.03500  Uiso   1.00
C183   C     0.16700   0.64740   0.34667   0.04102  Uani   1.00
H184   H     0.19460   0.67560   0.42687   0.04900  Uiso   1.00
C185   C     0.11170   0.68580   0.30567   0.06462  Uani   1.00
H186   H     0.14890   0.74580   0.28217   0.09600  Uiso   1.00
H187   H     0.07460   0.68240   0.37427   0.09600  Uiso   1.00
H188   H     0.07660   0.65380   0.23437   0.09600  Uiso   1.00
C189   C     0.24100   0.67070   0.25117   0.06444  Uani   1.00
H190   H     0.21660   0.64760   0.16947   0.09700  Uiso   1.00
H191   H     0.27590   0.64610   0.27877   0.09700  Uiso   1.00
H192   H     0.27690   0.73300   0.24567   0.09700  Uiso   1.00
loop_
_atom_site_aniso_label
_atom_site_aniso_U_11
_atom_site_aniso_U_22
_atom_site_aniso_U_33
_atom_site_aniso_U_12
_atom_site_aniso_U_13
_atom_site_aniso_U_23
Zn1       0.03849   0.03988   0.02197   0.02941  -0.00046  -0.00070
Cl2       0.09760   0.05270   0.06090   0.03910  -0.00280  -0.00010
O3        0.04560   0.05210   0.02460   0.03640  -0.00340  -0.00530
O4        0.05730   0.08480   0.02050   0.05520  -0.00640  -0.00420
N5        0.05960   0.02760   0.02630   0.02370  -0.00040   0.00070
N6        0.03880   0.03750   0.01600   0.02690  -0.00250  -0.00270
C8        0.09700   0.04090   0.02720   0.04400   0.01220   0.00570
C10       0.06600   0.03210   0.03110   0.02570   0.00640   0.00430
C12       0.06170   0.04050   0.03370   0.02900   0.00950   0.00430
C14       0.05370   0.03400   0.03010   0.02480  -0.00740  -0.00240
C15       0.11500   0.04250   0.02780   0.05400   0.00780   0.00530
C17       0.04060   0.03820   0.03960   0.02550  -0.00710  -0.00470
C20       0.03320   0.03810   0.01910   0.02230   0.00150   0.00140
C21       0.04090   0.04260   0.01950   0.03160  -0.00390  -0.00340
C23       0.03940   0.06800   0.02840   0.03640  -0.00030  -0.00330
C25       0.04430   0.07000   0.07200   0.02290   0.01180   0.00600
C29       0.06300   0.10800   0.04800   0.06200   0.00170  -0.01700
Zn33      0.03988   0.01955   0.02197   0.01047   0.00070   0.00024
Cl34      0.05270   0.07210   0.06090   0.01360   0.00010  -0.00270
O35       0.05210   0.02490   0.02460   0.01570   0.00530   0.00190
O36       0.08480   0.03170   0.02050   0.02960   0.00420  -0.00220
N37       0.02760   0.03980   0.02630   0.00390  -0.00070  -0.00110
N38       0.03750   0.02250   0.01600   0.01060   0.00270   0.00020
C40       0.04090   0.04990   0.02720  -0.00310  -0.00570   0.00650
C42       0.03210   0.04670   0.03110   0.00640  -0.00430   0.00210
C44       0.04050   0.04420   0.03370   0.01150  -0.00430   0.00520
C46       0.03400   0.03810   0.03010   0.00920   0.00240  -0.00500
C47       0.04250   0.04950   0.02780  -0.01150  -0.00530   0.00250
C49       0.03820   0.02780   0.03960   0.01270   0.00470  -0.00240
C52       0.03810   0.02670   0.01910   0.01580  -0.00140   0.00010
C53       0.04260   0.02030   0.01950   0.01100   0.00340  -0.00050
C55       0.06800   0.03460   0.02840   0.03160   0.00330   0.00300
C57       0.07000   0.06850   0.07200   0.04710  -0.00600   0.00580
C61       0.10800   0.04700   0.04800   0.04600   0.01700   0.01870
Zn65      0.01955   0.03849   0.02197   0.00908  -0.00024   0.00046
Cl66      0.07210   0.09760   0.06090   0.05850   0.00270   0.00280
O67       0.02490   0.04560   0.02460   0.00920  -0.00190   0.00340
O68       0.03170   0.05730   0.02050   0.00210   0.00220   0.00640
N69       0.03980   0.05960   0.02630   0.03590   0.00110   0.00040
N70       0.02250   0.03880   0.01600   0.01190  -0.00020   0.00250
C72       0.04990   0.09700   0.02720   0.05300  -0.00650  -0.01220
C74       0.04670   0.06600   0.03110   0.04030  -0.00210  -0.00640
C76       0.04420   0.06170   0.03370   0.03270  -0.00520  -0.00950
C78       0.03810   0.05370   0.03010   0.02890   0.00500   0.00740
C79       0.04950   0.11500   0.02780   0.06100  -0.00250  -0.00780
C81       0.02780   0.04060   0.03960   0.01510   0.00240   0.00710
C84       0.02670   0.03320   0.01910   0.01090  -0.00010  -0.00150
C85       0.02030   0.04090   0.01950   0.00930   0.00050   0.00390
C87       0.03460   0.03940   0.02840   0.00300  -0.00300   0.00030
C89       0.06850   0.04430   0.07200   0.02140  -0.00580  -0.01180
C93       0.04700   0.06300   0.04800   0.00100  -0.01870  -0.00170
Zn97      0.03849   0.03988   0.02197   0.02941   0.00046   0.00070
Cl98      0.09760   0.05270   0.06090   0.03910   0.00280   0.00010
O99       0.04560   0.05210   0.02460   0.03640   0.00340   0.00530
O100      0.05730   0.08480   0.02050   0.05520   0.00640   0.00420
N101      0.05960   0.02760   0.02630   0.02370   0.00040  -0.00070
N102      0.03880   0.03750   0.01600   0.02690   0.00250   0.00270
C104      0.09700   0.04090   0.02720   0.04400  -0.01220  -0.00570
C106      0.06600   0.03210   0.03110   0.02570  -0.00640  -0.00430
C108      0.06170   0.04050   0.03370   0.02900  -0.00950  -0.00430
C110      0.05370   0.03400   0.03010   0.02480   0.00740   0.00240
C111      0.11500   0.04250   0.02780   0.05400  -0.00780  -0.00530
C113      0.04060   0.03820   0.03960   0.02550   0.00710   0.00470
C116      0.03320   0.03810   0.01910   0.02230  -0.00150  -0.00140
C117      0.04090   0.04260   0.01950   0.03160   0.00390   0.00340
C119      0.03940   0.06800   0.02840   0.03640   0.00030   0.00330
C121      0.04430   0.07000   0.07200   0.02290  -0.01180  -0.00600
C125      0.06300   0.10800   0.04800   0.06200  -0.00170   0.01700
Zn129     0.03988   0.01955   0.02197   0.01047  -0.00070  -0.00024
Cl130     0.05270   0.07210   0.06090   0.01360  -0.00010   0.00270
O131      0.05210   0.02490   0.02460   0.01570  -0.00530  -0.00190
O132      0.08480   0.03170   0.02050   0.02960  -0.00420   0.00220
N133      0.02760   0.03980   0.02630   0.00390   0.00070   0.00110
N134      0.03750   0.02250   0.01600   0.01060  -0.00270  -0.00020
C136      0.04090   0.04990   0.02720  -0.00310   0.00570  -0.00650
C138      0.03210   0.04670   0.03110   0.00640   0.00430  -0.00210
C140      0.04050   0.04420   0.03370   0.01150   0.00430  -0.00520
C142      0.03400   0.03810   0.03010   0.00920  -0.00240   0.00500
C143      0.04250   0.04950   0.02780  -0.01150   0.00530  -0.00250
C145      0.03820   0.02780   0.03960   0.01270  -0.00470   0.00240
C148      0.03810   0.02670   0.01910   0.01580   0.00140  -0.00010
C149      0.04260   0.02030   0.01950   0.01100  -0.00340   0.00050
C151      0.06800   0.03460   0.02840   0.03160  -0.00330  -0.00300
C153      0.07000   0.06850   0.07200   0.04710   0.00600  -0.00580
C157      0.10800   0.04700   0.04800   0.04600  -0.01700  -0.01870
Zn161     0.01955   0.03849   0.02197   0.00908   0.00024  -0.00046
Cl162     0.07210   0.09760   0.06090   0.05850  -0.00270  -0.00280
O163      0.02490   0.04560   0.02460   0.00920   0.00190  -0.00340
O164      0.03170   0.05730   0.02050   0.00210  -0.00220  -0.00640
N165      0.03980   0.05960   0.02630   0.03590  -0.00110  -0.00040
N166      0.02250   0.03880   0.01600   0.01190   0.00020  -0.00250
C168      0.04990   0.09700   0.02720   0.05300   0.00650   0.01220
C170      0.04670   0.06600   0.03110   0.04030   0.00210   0.00640
C172      0.04420   0.06170   0.03370   0.03270   0.00520   0.00950
C174      0.03810   0.05370   0.03010   0.02890  -0.00500  -0.00740
C175      0.04950   0.11500   0.02780   0.06100   0.00250   0.00780
C177      0.02780   0.04060   0.03960   0.01510  -0.00240  -0.00710
C180      0.02670   0.03320   0.01910   0.01090   0.00010   0.00150
C181      0.02030   0.04090   0.01950   0.00930  -0.00050  -0.00390
C183      0.03460   0.03940   0.02840   0.00300   0.00300  -0.00030
C185      0.06850   0.04430   0.07200   0.02140   0.00580   0.01180
C189      0.04700   0.06300   0.04800   0.00100   0.01870   0.00170
loop_
_geom_bond_atom_site_label_1
_geom_bond_atom_site_label_2
_geom_bond_distance
_geom_bond_site_symmetry_2
_ccdc_geom_bond_type
Zn1    Cl2     2.238   .     S
Zn1    O3      2.164   .     S
Zn1    N6      2.088   .     S
Zn1    O100    2.096   1_554 S
Zn1    N165    2.055   .     S
O3     C20     1.245   .     S
O4     C20     1.250   .     S
O4     Zn97    2.096   .     S
N5     C8      1.352   .     S
N5     C10     1.335   1_556 S
N5     Zn129   2.055   .     S
N6     H7      0.910   .     S
N6     C17     1.492   .     S
N6     C21     1.481   .     S
C8     H9      0.929   .     S
C8     C15     1.380   .     S
C10    N5      1.335   1_554 S
C10    H11     0.930   .     S
C10    C12     1.376   .     S
C12    H13     0.930   .     S
C12    C14     1.385   .     S
C14    C15     1.403   1_554 S
C14    C17     1.506   .     S
C15    H16     0.930   .     S
C15    C14     1.403   1_556 S
C17    H18     0.968   .     S
C17    H19     0.970   .     S
C20    C21     1.548   .     S
C21    H22     0.979   .     S
C21    C23     1.528   .     S
C23    H24     0.980   .     S
C23    C25     1.507   .     S
C23    C29     1.537   .     S
C25    H26     0.961   .     S
C25    H27     0.959   .     S
C25    H28     0.960   .     S
C29    H30     0.960   .     S
C29    H31     0.961   .     S
C29    H32     0.960   .     S
Zn33   Cl34    2.238   .     S
Zn33   O35     2.164   .     S
Zn33   N38     2.088   1_565 S
Zn33   O132    2.096   .     S
Zn33   N101    2.055   .     S
O35    C52     1.245   1_565 S
O36    C52     1.250   .     S
O36    Zn129   2.096   .     S
N37    C40     1.352   .     S
N37    C42     1.335   .     S
N37    Zn161   2.055   .     S
N38    Zn33    2.088   1_545 S
N38    H39     0.910   .     S
N38    C49     1.492   .     S
N38    C53     1.481   .     S
C40    H41     0.929   .     S
C40    C47     1.380   .     S
C42    H43     0.930   .     S
C42    C44     1.376   .     S
C44    H45     0.930   .     S
C44    C46     1.385   .     S
C46    C47     1.403   .     S
C46    C49     1.506   .     S
C47    H48     0.930   .     S
C49    H50     0.968   .     S
C49    H51     0.970   .     S
C52    O35     1.245   1_545 S
C52    C53     1.548   .     S
C53    H54     0.979   .     S
C53    C55     1.528   .     S
C55    H56     0.980   .     S
C55    C57     1.507   .     S
C55    C61     1.537   .     S
C57    H58     0.961   .     S
C57    H59     0.959   .     S
C57    H60     0.960   .     S
C61    H62     0.960   .     S
C61    H63     0.961   .     S
C61    H64     0.960   .     S
Zn65   Cl66    2.238   .     S
Zn65   O67     2.164   .     S
Zn65   N70     2.088   1_455 S
Zn65   O164    2.096   .     S
Zn65   N133    2.055   .     S
O67    C84     1.245   1_455 S
O68    C84     1.250   1_554 S
O68    Zn161   2.096   .     S
N69    C72     1.352   .     S
N69    C74     1.335   .     S
N69    Zn97    2.055   .     S
N70    Zn65    2.088   1_655 S
N70    H71     0.910   .     S
N70    C81     1.492   .     S
N70    C85     1.481   .     S
C72    H73     0.929   .     S
C72    C79     1.380   .     S
C74    H75     0.930   .     S
C74    C76     1.376   .     S
C76    H77     0.930   .     S
C76    C78     1.385   .     S
C78    C79     1.403   .     S
C78    C81     1.506   .     S
C79    H80     0.930   .     S
C81    H82     0.968   .     S
C81    H83     0.970   .     S
C84    O68     1.250   1_556 S
C84    O67     1.245   1_655 S
C84    C85     1.548   .     S
C85    H86     0.979   .     S
C85    C87     1.528   .     S
C87    H88     0.980   .     S
C87    C89     1.507   .     S
C87    C93     1.537   .     S
C89    H90     0.961   .     S
C89    H91     0.959   .     S
C89    H92     0.960   .     S
C93    H94     0.960   .     S
C93    H95     0.961   .     S
C93    H96     0.960   .     S
Zn97   Cl98    2.238   .     S
Zn97   O99     2.164   .     S
Zn97   N102    2.088   .     S
O99    C116    1.245   .     S
O100   C116    1.250   .     S
O100   Zn1     2.096   1_556 S
N101   C104    1.352   .     S
N101   C106    1.335   .     S
N102   H103    0.910   .     S
N102   C113    1.492   .     S
N102   C117    1.481   .     S
C104   H105    0.929   .     S
C104   C111    1.380   .     S
C106   H107    0.930   .     S
C106   C108    1.376   .     S
C108   H109    0.930   .     S
C108   C110    1.385   .     S
C110   C111    1.403   .     S
C110   C113    1.506   .     S
C111   H112    0.930   .     S
C113   H114    0.968   .     S
C113   H115    0.970   .     S
C116   C117    1.548   .     S
C117   H118    0.979   .     S
C117   C119    1.528   .     S
C119   H120    0.980   .     S
C119   C121    1.507   .     S
C119   C125    1.537   .     S
C121   H122    0.961   .     S
C121   H123    0.959   .     S
C121   H124    0.960   .     S
C125   H126    0.960   .     S
C125   H127    0.961   .     S
C125   H128    0.960   .     S
Zn129  Cl130   2.238   .     S
Zn129  O131    2.164   1_556 S
Zn129  N134    2.088   1_545 S
O131   Zn129   2.164   1_554 S
O131   C148    1.245   1_545 S
O132   C148    1.250   .     S
N133   C136    1.352   .     S
N133   C138    1.335   .     S
N134   Zn129   2.088   1_565 S
N134   H135    0.910   .     S
N134   C145    1.492   .     S
N134   C149    1.481   1_556 S
C136   H137    0.929   .     S
C136   C143    1.380   .     S
C138   H139    0.930   .     S
C138   C140    1.376   .     S
C140   H141    0.930   1_556 S
C140   C142    1.385   .     S
H141   C140    0.930   1_554 S
C142   C143    1.403   .     S
C142   C145    1.506   .     S
C143   H144    0.930   .     S
C145   H146    0.968   .     S
C145   H147    0.970   .     S
C148   O131    1.245   1_565 S
C148   C149    1.548   .     S
C149   N134    1.481   1_554 S
C149   H150    0.979   .     S
C149   C151    1.528   .     S
C151   H152    0.980   .     S
C151   C153    1.507   1_554 S
C151   C157    1.537   1_554 S
C153   C151    1.507   1_556 S
C153   H154    0.961   .     S
C153   H155    0.959   1_556 S
C153   H156    0.960   .     S
H155   C153    0.959   1_554 S
C157   C151    1.537   1_556 S
C157   H158    0.960   .     S
C157   H159    0.961   .     S
C157   H160    0.960   .     S
Zn161  Cl162   2.238   .     S
Zn161  O163    2.164   .     S
Zn161  N166    2.088   1_655 S
O163   C180    1.245   1_655 S
O164   C180    1.250   .     S
N165   C168    1.352   .     S
N165   C170    1.335   .     S
N166   Zn161   2.088   1_455 S
N166   H167    0.910   .     S
N166   C177    1.492   .     S
N166   C181    1.481   .     S
C168   H169    0.929   1_554 S
C168   C175    1.380   .     S
H169   C168    0.929   1_556 S
C170   H171    0.930   .     S
C170   C172    1.376   .     S
C172   H173    0.930   .     S
C172   C174    1.385   .     S
C174   C175    1.403   .     S
C174   C177    1.506   .     S
C175   H176    0.930   .     S
C177   H178    0.968   .     S
C177   H179    0.970   .     S
C180   O163    1.245   1_455 S
C180   C181    1.548   .     S
C181   H182    0.979   .     S
C181   C183    1.528   .     S
C183   H184    0.980   .     S
C183   C185    1.507   .     S
C183   C189    1.537   .     S
C185   H186    0.961   .     S
C185   H187    0.959   .     S
C185   H188    0.960   .     S
C189   H190    0.960   .     S
C189   H191    0.961   .     S
C189   H192    0.960   .     S
