data_IDUWAH_FSR
_audit_creation_date              2024-06-11
_audit_creation_method            'Materials Studio'
_symmetry_space_group_name_H-M    'P1'
_symmetry_Int_Tables_number       1
_symmetry_cell_setting            triclinic
loop_
_symmetry_equiv_pos_as_xyz
  x,y,z
_cell_length_a                    6.0301
_cell_length_b                    18.3470
_cell_length_c                    19.0401
_cell_angle_alpha                 90.0000
_cell_angle_beta                  95.5410
_cell_angle_gamma                 90.0000
loop_
_atom_site_label
_atom_site_type_symbol
_atom_site_fract_x
_atom_site_fract_y
_atom_site_fract_z
_atom_site_U_iso_or_equiv
_atom_site_adp_type
_atom_site_occupancy
La1    La    0.08811   0.66659   0.46494   0.00000  Uiso   1.00
C2     C     0.21780   0.74810   0.70210   0.00000  Uiso   1.00
C3     C     0.05870   0.69420   0.68620   0.00000  Uiso   1.00
H4     H     0.92900   0.70630   0.65610   0.00000  Uiso   1.00
C5     C     0.08030   0.62330   0.71210   0.00000  Uiso   1.00
C6     C     0.26780   0.60560   0.75710   0.00000  Uiso   1.00
C7     C     0.42410   0.65940   0.77370   0.00000  Uiso   1.00
H8     H     0.55190   0.64750   0.80470   0.00000  Uiso   1.00
C9     C     0.40450   0.73010   0.74740   0.00000  Uiso   1.00
C10    C     0.18460   0.82200   0.66800   0.00000  Uiso   1.00
H11    H     0.25490   0.85960   0.70010   0.00000  Uiso   1.00
H12    H     0.02320   0.83270   0.66030   0.00000  Uiso   1.00
C13    C     0.90280   0.56750   0.68630   0.00000  Uiso   1.00
H14    H     0.75530   0.59160   0.68020   0.00000  Uiso   1.00
H15    H     0.89680   0.52860   0.72210   0.00000  Uiso   1.00
C16    C     0.30650   0.53020   0.78910   0.00000  Uiso   1.00
H17    H     0.46850   0.52000   0.79460   0.00000  Uiso   1.00
H18    H     0.23470   0.49340   0.75620   0.00000  Uiso   1.00
C19    C     0.59190   0.78370   0.77140   0.00000  Uiso   1.00
H20    H     0.73030   0.75570   0.78400   0.00000  Uiso   1.00
H21    H     0.61810   0.81580   0.73120   0.00000  Uiso   1.00
P22    P     0.19840   0.52072   0.87363   0.00000  Uiso   1.00
P23    P     0.96210   0.52738   0.60359   0.00000  Uiso   1.00
P24    P     0.53940   0.83947   0.84471   0.00000  Uiso   1.00
P25    P     0.30320   0.82605   0.58503   0.00000  Uiso   1.00
O26    O     0.28140   0.58270   0.92090   0.00000  Uiso   1.00
O27    O     0.94000   0.52830   0.85450   0.00000  Uiso   1.00
O28    O     0.25270   0.44680   0.90400   0.00000  Uiso   1.00
O29    O     0.92520   0.58360   0.54600   0.00000  Uiso   1.00
O30    O     0.82950   0.45730   0.59270   0.00000  Uiso   1.00
O31    O     0.21880   0.50660   0.61200   0.00000  Uiso   1.00
O32    O     0.76370   0.86630   0.87930   0.00000  Uiso   1.00
O33    O     0.40520   0.90670   0.81150   0.00000  Uiso   1.00
O34    O     0.40240   0.80180   0.89600   0.00000  Uiso   1.00
O35    O     0.56100   0.82960   0.60050   0.00000  Uiso   1.00
O36    O     0.24130   0.76050   0.54140   0.00000  Uiso   1.00
O37    O     0.22010   0.89880   0.55050   0.00000  Uiso   1.00
O38    O     0.42990   0.60840   0.53560   0.00000  Uiso   1.00
O39    O     0.00020   0.78630   0.39420   0.00000  Uiso   1.00
O40    O     0.74020   0.73120   0.50380   0.00000  Uiso   1.00
La41   La    0.91189   0.16659   0.03506   0.00000  Uiso   1.00
C42    C     0.78220   0.24810   0.79790   0.00000  Uiso   1.00
C43    C     0.94130   0.19420   0.81380   0.00000  Uiso   1.00
H44    H     0.07100   0.20630   0.84390   0.00000  Uiso   1.00
C45    C     0.91970   0.12330   0.78790   0.00000  Uiso   1.00
C46    C     0.73220   0.10560   0.74290   0.00000  Uiso   1.00
C47    C     0.57590   0.15940   0.72630   0.00000  Uiso   1.00
H48    H     0.44810   0.14750   0.69530   0.00000  Uiso   1.00
C49    C     0.59550   0.23010   0.75260   0.00000  Uiso   1.00
C50    C     0.81540   0.32200   0.83200   0.00000  Uiso   1.00
H51    H     0.74510   0.35960   0.79990   0.00000  Uiso   1.00
H52    H     0.97680   0.33270   0.83970   0.00000  Uiso   1.00
C53    C     0.09720   0.06750   0.81370   0.00000  Uiso   1.00
H54    H     0.24470   0.09160   0.81980   0.00000  Uiso   1.00
H55    H     0.10320   0.02860   0.77790   0.00000  Uiso   1.00
C56    C     0.69350   0.03020   0.71090   0.00000  Uiso   1.00
H57    H     0.53150   0.02000   0.70540   0.00000  Uiso   1.00
H58    H     0.76530   0.99340   0.74380   0.00000  Uiso   1.00
C59    C     0.40810   0.28370   0.72860   0.00000  Uiso   1.00
H60    H     0.26970   0.25570   0.71600   0.00000  Uiso   1.00
H61    H     0.38190   0.31580   0.76880   0.00000  Uiso   1.00
P62    P     0.80160   0.02072   0.62637   0.00000  Uiso   1.00
P63    P     0.03790   0.02738   0.89641   0.00000  Uiso   1.00
P64    P     0.46060   0.33947   0.65529   0.00000  Uiso   1.00
P65    P     0.69680   0.32605   0.91497   0.00000  Uiso   1.00
O66    O     0.71860   0.08270   0.57910   0.00000  Uiso   1.00
O67    O     0.06000   0.02830   0.64550   0.00000  Uiso   1.00
O68    O     0.74730   0.94680   0.59600   0.00000  Uiso   1.00
O69    O     0.07480   0.08360   0.95400   0.00000  Uiso   1.00
O70    O     0.17050   0.95730   0.90730   0.00000  Uiso   1.00
O71    O     0.78120   0.00660   0.88800   0.00000  Uiso   1.00
O72    O     0.23630   0.36630   0.62070   0.00000  Uiso   1.00
O73    O     0.59480   0.40670   0.68850   0.00000  Uiso   1.00
O74    O     0.59760   0.30180   0.60400   0.00000  Uiso   1.00
O75    O     0.43900   0.32960   0.89950   0.00000  Uiso   1.00
O76    O     0.75870   0.26050   0.95860   0.00000  Uiso   1.00
O77    O     0.77990   0.39880   0.94950   0.00000  Uiso   1.00
O78    O     0.57010   0.10840   0.96440   0.00000  Uiso   1.00
O79    O     0.99980   0.28630   0.10580   0.00000  Uiso   1.00
O80    O     0.25980   0.23120   0.99620   0.00000  Uiso   1.00
La81   La    0.91189   0.33341   0.53506   0.00000  Uiso   1.00
C82    C     0.78220   0.25190   0.29790   0.00000  Uiso   1.00
C83    C     0.94130   0.30580   0.31380   0.00000  Uiso   1.00
H84    H     0.07100   0.29370   0.34390   0.00000  Uiso   1.00
C85    C     0.91970   0.37670   0.28790   0.00000  Uiso   1.00
C86    C     0.73220   0.39440   0.24290   0.00000  Uiso   1.00
C87    C     0.57590   0.34060   0.22630   0.00000  Uiso   1.00
H88    H     0.44810   0.35250   0.19530   0.00000  Uiso   1.00
C89    C     0.59550   0.26990   0.25260   0.00000  Uiso   1.00
C90    C     0.81540   0.17800   0.33200   0.00000  Uiso   1.00
H91    H     0.74510   0.14040   0.29990   0.00000  Uiso   1.00
H92    H     0.97680   0.16730   0.33970   0.00000  Uiso   1.00
C93    C     0.09720   0.43250   0.31370   0.00000  Uiso   1.00
H94    H     0.24470   0.40840   0.31980   0.00000  Uiso   1.00
H95    H     0.10320   0.47140   0.27790   0.00000  Uiso   1.00
C96    C     0.69350   0.46980   0.21090   0.00000  Uiso   1.00
H97    H     0.53150   0.48000   0.20540   0.00000  Uiso   1.00
H98    H     0.76530   0.50660   0.24380   0.00000  Uiso   1.00
C99    C     0.40810   0.21630   0.22860   0.00000  Uiso   1.00
H100   H     0.26970   0.24430   0.21600   0.00000  Uiso   1.00
H101   H     0.38190   0.18420   0.26880   0.00000  Uiso   1.00
P102   P     0.80160   0.47928   0.12637   0.00000  Uiso   1.00
P103   P     0.03790   0.47262   0.39641   0.00000  Uiso   1.00
P104   P     0.46060   0.16053   0.15529   0.00000  Uiso   1.00
P105   P     0.69680   0.17395   0.41497   0.00000  Uiso   1.00
O106   O     0.71860   0.41730   0.07910   0.00000  Uiso   1.00
O107   O     0.06000   0.47170   0.14550   0.00000  Uiso   1.00
O108   O     0.74730   0.55320   0.09600   0.00000  Uiso   1.00
O109   O     0.07480   0.41640   0.45400   0.00000  Uiso   1.00
O110   O     0.17050   0.54270   0.40730   0.00000  Uiso   1.00
O111   O     0.78120   0.49340   0.38800   0.00000  Uiso   1.00
O112   O     0.23630   0.13370   0.12070   0.00000  Uiso   1.00
O113   O     0.59480   0.09330   0.18850   0.00000  Uiso   1.00
O114   O     0.59760   0.19820   0.10400   0.00000  Uiso   1.00
O115   O     0.43900   0.17040   0.39950   0.00000  Uiso   1.00
O116   O     0.75870   0.23950   0.45860   0.00000  Uiso   1.00
O117   O     0.77990   0.10120   0.44950   0.00000  Uiso   1.00
O118   O     0.57010   0.39160   0.46440   0.00000  Uiso   1.00
O119   O     0.99980   0.21370   0.60580   0.00000  Uiso   1.00
O120   O     0.25980   0.26880   0.49620   0.00000  Uiso   1.00
La121  La    0.08811   0.83341   0.96494   0.00000  Uiso   1.00
C122   C     0.21780   0.75190   0.20210   0.00000  Uiso   1.00
C123   C     0.05870   0.80580   0.18620   0.00000  Uiso   1.00
H124   H     0.92900   0.79370   0.15610   0.00000  Uiso   1.00
C125   C     0.08030   0.87670   0.21210   0.00000  Uiso   1.00
C126   C     0.26780   0.89440   0.25710   0.00000  Uiso   1.00
C127   C     0.42410   0.84060   0.27370   0.00000  Uiso   1.00
H128   H     0.55190   0.85250   0.30470   0.00000  Uiso   1.00
C129   C     0.40450   0.76990   0.24740   0.00000  Uiso   1.00
C130   C     0.18460   0.67800   0.16800   0.00000  Uiso   1.00
H131   H     0.25490   0.64040   0.20010   0.00000  Uiso   1.00
H132   H     0.02320   0.66730   0.16030   0.00000  Uiso   1.00
C133   C     0.90280   0.93250   0.18630   0.00000  Uiso   1.00
H134   H     0.75530   0.90840   0.18020   0.00000  Uiso   1.00
H135   H     0.89680   0.97140   0.22210   0.00000  Uiso   1.00
C136   C     0.30650   0.96980   0.28910   0.00000  Uiso   1.00
H137   H     0.46850   0.98000   0.29460   0.00000  Uiso   1.00
H138   H     0.23470   0.00660   0.25620   0.00000  Uiso   1.00
C139   C     0.59190   0.71630   0.27140   0.00000  Uiso   1.00
H140   H     0.73030   0.74430   0.28400   0.00000  Uiso   1.00
H141   H     0.61810   0.68420   0.23120   0.00000  Uiso   1.00
P142   P     0.19840   0.97928   0.37363   0.00000  Uiso   1.00
P143   P     0.96210   0.97262   0.10359   0.00000  Uiso   1.00
P144   P     0.53940   0.66053   0.34471   0.00000  Uiso   1.00
P145   P     0.30320   0.67395   0.08503   0.00000  Uiso   1.00
O146   O     0.28140   0.91730   0.42090   0.00000  Uiso   1.00
O147   O     0.94000   0.97170   0.35450   0.00000  Uiso   1.00
O148   O     0.25270   0.05320   0.40400   0.00000  Uiso   1.00
O149   O     0.92520   0.91640   0.04600   0.00000  Uiso   1.00
O150   O     0.82950   0.04270   0.09270   0.00000  Uiso   1.00
O151   O     0.21880   0.99340   0.11200   0.00000  Uiso   1.00
O152   O     0.76370   0.63370   0.37930   0.00000  Uiso   1.00
O153   O     0.40520   0.59330   0.31150   0.00000  Uiso   1.00
O154   O     0.40240   0.69820   0.39600   0.00000  Uiso   1.00
O155   O     0.56100   0.67040   0.10050   0.00000  Uiso   1.00
O156   O     0.24130   0.73950   0.04140   0.00000  Uiso   1.00
O157   O     0.22010   0.60120   0.05050   0.00000  Uiso   1.00
O158   O     0.42990   0.89160   0.03560   0.00000  Uiso   1.00
O159   O     0.00020   0.71370   0.89420   0.00000  Uiso   1.00
O160   O     0.74020   0.76880   0.00380   0.00000  Uiso   1.00
loop_
_geom_bond_atom_site_label_1
_geom_bond_atom_site_label_2
_geom_bond_distance
_geom_bond_site_symmetry_2
_ccdc_geom_bond_type
La1    O29     2.441   1_455 S
La1    O36     2.384   .     S
La1    O38     2.581   .     S
La1    O39     2.604   .     S
La1    O40     2.579   1_455 S
La1    O110    2.593   .     S
La1    O152    2.497   1_455 S
La1    O154    2.476   .     S
C2     C3      1.391   .     S
C2     C9      1.390   .     S
C2     C10     1.508   .     S
C3     H4      0.950   1_455 S
C3     C5      1.393   .     S
H4     C3      0.950   1_655 S
C5     C6      1.390   .     S
C5     C13     1.528   1_455 S
C6     C7      1.380   .     S
C6     C16     1.521   .     S
C7     H8      0.950   .     S
C7     C9      1.391   .     S
C9     C19     1.534   .     S
C10    H11     0.989   .     S
C10    H12     0.990   .     S
C10    P25     1.797   .     S
C13    C5      1.528   1_655 S
C13    H14     0.990   .     S
C13    H15     0.990   .     S
C13    P23     1.805   .     S
C16    H17     0.990   .     S
C16    H18     0.992   .     S
C16    P22     1.802   .     S
C19    H20     0.990   .     S
C19    H21     0.990   .     S
C19    P24     1.783   .     S
P22    O26     1.506   .     S
P22    O27     1.572   1_455 S
P22    O28     1.498   .     S
P23    O29     1.506   .     S
P23    O30     1.518   .     S
P23    O31     1.587   1_655 S
P24    O32     1.528   .     S
P24    O33     1.574   .     S
P24    O34     1.507   .     S
P25    O35     1.555   .     S
P25    O37     1.550   .     S
P25    O36     1.489   .     S
O27    P22     1.572   1_655 S
O29    La1     2.441   1_655 S
O30    La81    2.593   .     S
O31    P23     1.587   1_455 S
O32    La121   2.497   1_655 S
O34    La121   2.476   .     S
O40    La1     2.579   1_655 S
La41   O69     2.441   1_654 S
La41   O76     2.384   1_554 S
La41   O78     2.581   1_554 S
La41   O79     2.604   .     S
La41   O80     2.579   1_654 S
La41   O150    2.593   .     S
La41   O112    2.497   1_655 S
La41   O114    2.476   .     S
C42    C43     1.391   .     S
C42    C49     1.390   .     S
C42    C50     1.508   .     S
C43    H44     0.950   1_655 S
C43    C45     1.393   .     S
H44    C43     0.950   1_455 S
C45    C46     1.390   .     S
C45    C53     1.528   1_655 S
C46    C47     1.380   .     S
C46    C56     1.521   .     S
C47    H48     0.950   .     S
C47    C49     1.391   .     S
C49    C59     1.534   .     S
C50    H51     0.989   .     S
C50    H52     0.990   .     S
C50    P65     1.797   .     S
C53    C45     1.528   1_455 S
C53    H54     0.990   .     S
C53    H55     0.990   .     S
C53    P63     1.805   .     S
C56    H57     0.990   .     S
C56    H58     0.992   1_545 S
C56    P62     1.802   .     S
H58    C56     0.992   1_565 S
C59    H60     0.990   .     S
C59    H61     0.990   .     S
C59    P64     1.783   .     S
P62    O66     1.506   .     S
P62    O67     1.572   1_655 S
P62    O68     1.498   1_545 S
P63    O69     1.506   .     S
P63    O70     1.518   1_545 S
P63    O71     1.587   1_455 S
P64    O72     1.528   .     S
P64    O73     1.574   .     S
P64    O74     1.507   .     S
P65    O75     1.555   .     S
P65    O77     1.550   .     S
P65    O76     1.489   .     S
O67    P62     1.572   1_455 S
O68    P62     1.498   1_565 S
O69    La41    2.441   1_456 S
O70    P63     1.518   1_565 S
O70    La121   2.593   .     S
O71    P63     1.587   1_655 S
O72    La81    2.497   1_455 S
O74    La81    2.476   .     S
O76    La41    2.384   1_556 S
O78    La41    2.581   1_556 S
O80    La41    2.579   1_456 S
La81   O109    2.441   1_655 S
La81   O116    2.384   .     S
La81   O118    2.581   .     S
La81   O119    2.604   .     S
La81   O120    2.579   1_655 S
La81   O72     2.497   1_655 S
C82    C83     1.391   .     S
C82    C89     1.390   .     S
C82    C90     1.508   .     S
C83    H84     0.950   1_655 S
C83    C85     1.393   .     S
H84    C83     0.950   1_455 S
C85    C86     1.390   .     S
C85    C93     1.528   1_655 S
C86    C87     1.380   .     S
C86    C96     1.521   .     S
C87    H88     0.950   .     S
C87    C89     1.391   .     S
C89    C99     1.534   .     S
C90    H91     0.989   .     S
C90    H92     0.990   .     S
C90    P105    1.797   .     S
C93    C85     1.528   1_455 S
C93    H94     0.990   .     S
C93    H95     0.990   .     S
C93    P103    1.805   .     S
C96    H97     0.990   .     S
C96    H98     0.992   .     S
C96    P102    1.802   .     S
C99    H100    0.990   .     S
C99    H101    0.990   .     S
C99    P104    1.783   .     S
P102   O106    1.506   .     S
P102   O107    1.572   1_655 S
P102   O108    1.498   .     S
P103   O109    1.506   .     S
P103   O110    1.518   .     S
P103   O111    1.587   1_455 S
P104   O112    1.528   .     S
P104   O113    1.574   .     S
P104   O114    1.507   .     S
P105   O115    1.555   .     S
P105   O117    1.550   .     S
P105   O116    1.489   .     S
O107   P102    1.572   1_455 S
O109   La81    2.441   1_455 S
O111   P103    1.587   1_655 S
O112   La41    2.497   1_455 S
O120   La81    2.579   1_455 S
La121  O149    2.441   1_456 S
La121  O156    2.384   1_556 S
La121  O158    2.581   1_556 S
La121  O159    2.604   .     S
La121  O160    2.579   1_456 S
La121  O32     2.497   1_455 S
C122   C123    1.391   .     S
C122   C129    1.390   .     S
C122   C130    1.508   .     S
C123   H124    0.950   1_455 S
C123   C125    1.393   .     S
H124   C123    0.950   1_655 S
C125   C126    1.390   .     S
C125   C133    1.528   1_455 S
C126   C127    1.380   .     S
C126   C136    1.521   .     S
C127   H128    0.950   .     S
C127   C129    1.391   .     S
C129   C139    1.534   .     S
C130   H131    0.989   .     S
C130   H132    0.990   .     S
C130   P145    1.797   .     S
C133   C125    1.528   1_655 S
C133   H134    0.990   .     S
C133   H135    0.990   .     S
C133   P143    1.805   .     S
C136   H137    0.990   .     S
C136   H138    0.992   1_565 S
C136   P142    1.802   .     S
H138   C136    0.992   1_545 S
C139   H140    0.990   .     S
C139   H141    0.990   .     S
C139   P144    1.783   .     S
P142   O146    1.506   .     S
P142   O147    1.572   1_455 S
P142   O148    1.498   1_565 S
P143   O149    1.506   .     S
P143   O150    1.518   1_565 S
P143   O151    1.587   1_655 S
P144   O152    1.528   .     S
P144   O153    1.574   .     S
P144   O154    1.507   .     S
P145   O155    1.555   .     S
P145   O157    1.550   .     S
P145   O156    1.489   .     S
O147   P142    1.572   1_655 S
O148   P142    1.498   1_545 S
O149   La121   2.441   1_654 S
O150   P143    1.518   1_545 S
O151   P143    1.587   1_455 S
O152   La1     2.497   1_655 S
O156   La121   2.384   1_554 S
O158   La121   2.581   1_554 S
O160   La121   2.579   1_654 S
