data_IHOWEK_FSR
_audit_creation_date              2024-06-11
_audit_creation_method            'Materials Studio'
_symmetry_space_group_name_H-M    'P1'
_symmetry_Int_Tables_number       1
_symmetry_cell_setting            triclinic
loop_
_symmetry_equiv_pos_as_xyz
  x,y,z
_cell_length_a                    6.9477
_cell_length_b                    13.1800
_cell_length_c                    14.6073
_cell_angle_alpha                 90.0000
_cell_angle_beta                  117.8210
_cell_angle_gamma                 90.0000
loop_
_atom_site_label
_atom_site_type_symbol
_atom_site_fract_x
_atom_site_fract_y
_atom_site_fract_z
_atom_site_U_iso_or_equiv
_atom_site_adp_type
_atom_site_occupancy
C1     C     0.63410   0.04560   0.34880   0.02456  Uani   1.00
C2     C     0.40400   0.07820   0.27250   0.02774  Uani   1.00
H3     H     0.30226   0.02762   0.27210   0.03300  Uiso   1.00
H4     H     0.37139   0.14162   0.29609   0.03300  Uiso   1.00
C5     C     0.17710   0.34550   0.96660   0.02185  Uani   1.00
C6     C     0.30260   0.25460   0.95660   0.02470  Uani   1.00
H7     H     0.22954   0.23028   0.88575   0.02900  Uiso   1.00
H8     H     0.44720   0.27673   0.97097   0.02900  Uiso   1.00
C9     C     0.37830   0.18040   0.12580   0.02341  Uani   1.00
H10    H     0.41703   0.24133   0.16205   0.02800  Uiso   1.00
C11    C     0.30750   0.01850   0.08930   0.01929  Uani   1.00
C12    C     0.27790   0.06850   0.99990   0.01904  Uani   1.00
C13    C     0.21420   0.01760   0.90700   0.02472  Uani   1.00
H14    H     0.19647   0.05102   0.84751   0.03000  Uiso   1.00
C15    C     0.17870   0.91490   0.90780   0.03126  Uani   1.00
H16    H     0.13516   0.87798   0.84709   0.03700  Uiso   1.00
C17    C     0.20630   0.86490   0.99720   0.03242  Uani   1.00
H18    H     0.17962   0.79553   0.99423   0.03900  Uiso   1.00
C19    C     0.27190   0.91520   0.08980   0.02788  Uani   1.00
H20    H     0.29116   0.88143   0.14937   0.03400  Uiso   1.00
Cl21   Cl    0.14833   0.84265   0.31890   0.02989  Uani   1.00
N22    N     0.37120   0.09170   0.16670   0.02058  Uani   1.00
N23    N     0.32260   0.17080   0.02610   0.02048  Uani   1.00
O24    O     0.73750   0.99320   0.31530   0.03490  Uani   1.00
O25    O     0.69230   0.07260   0.43957   0.03510  Uani   1.00
O26    O     0.11420   0.34203   0.03320   0.03123  Uani   1.00
O27    O     0.15370   0.41544   0.90530   0.03329  Uani   1.00
Zn28   Zn    0.04627   0.94266   0.41487   0.01842  Uani   1.00
C29    C     0.36590   0.54560   0.15120   0.02456  Uani   1.00
C30    C     0.59600   0.57820   0.22750   0.02774  Uani   1.00
H31    H     0.69774   0.52762   0.22790   0.03300  Uiso   1.00
H32    H     0.62860   0.64162   0.20391   0.03300  Uiso   1.00
C33    C     0.82290   0.84550   0.53340   0.02185  Uani   1.00
C34    C     0.69740   0.75460   0.54340   0.02470  Uani   1.00
H35    H     0.77046   0.73028   0.61425   0.02900  Uiso   1.00
H36    H     0.55280   0.77673   0.52903   0.02900  Uiso   1.00
C37    C     0.62170   0.68040   0.37420   0.02341  Uani   1.00
H38    H     0.58297   0.74133   0.33795   0.02800  Uiso   1.00
C39    C     0.69250   0.51850   0.41070   0.01929  Uani   1.00
C40    C     0.72210   0.56850   0.50010   0.01904  Uani   1.00
C41    C     0.78580   0.51760   0.59300   0.02472  Uani   1.00
H42    H     0.80353   0.55102   0.65249   0.03000  Uiso   1.00
C43    C     0.82130   0.41490   0.59220   0.03126  Uani   1.00
H44    H     0.86484   0.37798   0.65291   0.03700  Uiso   1.00
C45    C     0.79370   0.36490   0.50280   0.03242  Uani   1.00
H46    H     0.82038   0.29553   0.50577   0.03900  Uiso   1.00
C47    C     0.72810   0.41520   0.41020   0.02788  Uani   1.00
H48    H     0.70884   0.38143   0.35063   0.03400  Uiso   1.00
Cl49   Cl    0.85167   0.34265   0.18110   0.02989  Uani   1.00
N50    N     0.62880   0.59170   0.33330   0.02058  Uani   1.00
N51    N     0.67740   0.67080   0.47390   0.02048  Uani   1.00
O52    O     0.26250   0.49320   0.18470   0.03490  Uani   1.00
O53    O     0.30770   0.57260   0.06043   0.03510  Uani   1.00
O54    O     0.88580   0.84203   0.46680   0.03123  Uani   1.00
O55    O     0.84630   0.91544   0.59470   0.03329  Uani   1.00
Zn56   Zn    0.95373   0.44266   0.08513   0.01842  Uani   1.00
C57    C     0.36590   0.95440   0.65120   0.02456  Uani   1.00
C58    C     0.59600   0.92180   0.72750   0.02774  Uani   1.00
H59    H     0.69774   0.97238   0.72790   0.03300  Uiso   1.00
H60    H     0.62860   0.85838   0.70391   0.03300  Uiso   1.00
C61    C     0.82290   0.65450   0.03340   0.02185  Uani   1.00
C62    C     0.69740   0.74540   0.04340   0.02470  Uani   1.00
H63    H     0.77046   0.76972   0.11425   0.02900  Uiso   1.00
H64    H     0.55280   0.72327   0.02903   0.02900  Uiso   1.00
C65    C     0.62170   0.81960   0.87420   0.02341  Uani   1.00
H66    H     0.58297   0.75867   0.83795   0.02800  Uiso   1.00
C67    C     0.69250   0.98150   0.91070   0.01929  Uani   1.00
C68    C     0.72210   0.93150   0.00010   0.01904  Uani   1.00
C69    C     0.78580   0.98240   0.09300   0.02472  Uani   1.00
H70    H     0.80353   0.94898   0.15249   0.03000  Uiso   1.00
C71    C     0.82130   0.08510   0.09220   0.03126  Uani   1.00
H72    H     0.86484   0.12202   0.15291   0.03700  Uiso   1.00
C73    C     0.79370   0.13510   0.00280   0.03242  Uani   1.00
H74    H     0.82038   0.20447   0.00577   0.03900  Uiso   1.00
C75    C     0.72810   0.08480   0.91020   0.02788  Uani   1.00
H76    H     0.70884   0.11857   0.85063   0.03400  Uiso   1.00
Cl77   Cl    0.85167   0.15735   0.68110   0.02989  Uani   1.00
N78    N     0.62880   0.90830   0.83330   0.02058  Uani   1.00
N79    N     0.67740   0.82920   0.97390   0.02048  Uani   1.00
O80    O     0.26250   0.00680   0.68470   0.03490  Uani   1.00
O81    O     0.30770   0.92740   0.56043   0.03510  Uani   1.00
O82    O     0.88580   0.65797   0.96680   0.03123  Uani   1.00
O83    O     0.84630   0.58456   0.09470   0.03329  Uani   1.00
Zn84   Zn    0.95373   0.05734   0.58513   0.01842  Uani   1.00
C85    C     0.63410   0.45440   0.84880   0.02456  Uani   1.00
C86    C     0.40400   0.42180   0.77250   0.02774  Uani   1.00
H87    H     0.30226   0.47238   0.77210   0.03300  Uiso   1.00
H88    H     0.37139   0.35838   0.79609   0.03300  Uiso   1.00
C89    C     0.17710   0.15450   0.46660   0.02185  Uani   1.00
C90    C     0.30260   0.24540   0.45660   0.02470  Uani   1.00
H91    H     0.22954   0.26972   0.38575   0.02900  Uiso   1.00
H92    H     0.44720   0.22327   0.47097   0.02900  Uiso   1.00
C93    C     0.37830   0.31960   0.62580   0.02341  Uani   1.00
H94    H     0.41703   0.25867   0.66205   0.02800  Uiso   1.00
C95    C     0.30750   0.48150   0.58930   0.01929  Uani   1.00
C96    C     0.27790   0.43150   0.49990   0.01904  Uani   1.00
C97    C     0.21420   0.48240   0.40700   0.02472  Uani   1.00
H98    H     0.19647   0.44898   0.34751   0.03000  Uiso   1.00
C99    C     0.17870   0.58510   0.40780   0.03126  Uani   1.00
H100   H     0.13516   0.62202   0.34709   0.03700  Uiso   1.00
C101   C     0.20630   0.63510   0.49720   0.03242  Uani   1.00
H102   H     0.17962   0.70447   0.49423   0.03900  Uiso   1.00
C103   C     0.27190   0.58480   0.58980   0.02788  Uani   1.00
H104   H     0.29116   0.61857   0.64937   0.03400  Uiso   1.00
Cl105  Cl    0.14833   0.65735   0.81890   0.02989  Uani   1.00
N106   N     0.37120   0.40830   0.66670   0.02058  Uani   1.00
N107   N     0.32260   0.32920   0.52610   0.02048  Uani   1.00
O108   O     0.73750   0.50680   0.81530   0.03490  Uani   1.00
O109   O     0.69230   0.42740   0.93957   0.03510  Uani   1.00
O110   O     0.11420   0.15797   0.53320   0.03123  Uani   1.00
O111   O     0.15370   0.08456   0.40530   0.03329  Uani   1.00
Zn112  Zn    0.04627   0.55734   0.91487   0.01842  Uani   1.00
loop_
_atom_site_aniso_label
_atom_site_aniso_U_11
_atom_site_aniso_U_22
_atom_site_aniso_U_33
_atom_site_aniso_U_12
_atom_site_aniso_U_13
_atom_site_aniso_U_23
C1        0.02400   0.02800   0.02040  -0.00050   0.00930   0.00440
C2        0.02700   0.04200   0.01550   0.00500   0.01100   0.00200
C5        0.02380   0.01840   0.02270   0.00200   0.01030  -0.00210
C6        0.03100   0.02300   0.02400   0.00490   0.01610   0.00440
C9        0.02330   0.02570   0.01910   0.00210   0.00810  -0.00330
C11       0.01570   0.02250   0.02120   0.00420   0.00990   0.00160
C12       0.01360   0.02030   0.02210   0.00460   0.00740   0.00450
C13       0.02040   0.03200   0.02080   0.00820   0.00880  -0.00050
C15       0.02400   0.03200   0.03300  -0.00010   0.00930  -0.01180
C17       0.02900   0.01740   0.05400  -0.00190   0.02200  -0.00360
C19       0.02400   0.02500   0.03700   0.00430   0.01620   0.00850
Cl21      0.04640   0.02420   0.02600   0.00850   0.02270   0.00130
N22       0.02080   0.02340   0.01470   0.00490   0.00590   0.00230
N23       0.02740   0.01600   0.01980   0.00500   0.01250   0.00240
O24       0.02640   0.05150   0.02100   0.01500   0.00620   0.00270
O25       0.03070   0.04890   0.01630   0.00290   0.00310  -0.00160
O26       0.04240   0.02310   0.04400   0.00890   0.03340   0.00490
O27       0.05540   0.01760   0.03770   0.01290   0.03080   0.01000
Zn28      0.02280   0.01720   0.01630  -0.00010   0.01000  -0.00117
C29       0.02400   0.02800   0.02040   0.00050   0.00930  -0.00440
C30       0.02700   0.04200   0.01550  -0.00500   0.01100  -0.00200
C33       0.02380   0.01840   0.02270  -0.00200   0.01030   0.00210
C34       0.03100   0.02300   0.02400  -0.00490   0.01610  -0.00440
C37       0.02330   0.02570   0.01910  -0.00210   0.00810   0.00330
C39       0.01570   0.02250   0.02120  -0.00420   0.00990  -0.00160
C40       0.01360   0.02030   0.02210  -0.00460   0.00740  -0.00450
C41       0.02040   0.03200   0.02080  -0.00820   0.00880   0.00050
C43       0.02400   0.03200   0.03300   0.00010   0.00930   0.01180
C45       0.02900   0.01740   0.05400   0.00190   0.02200   0.00360
C47       0.02400   0.02500   0.03700  -0.00430   0.01620  -0.00850
Cl49      0.04640   0.02420   0.02600  -0.00850   0.02270  -0.00130
N50       0.02080   0.02340   0.01470  -0.00490   0.00590  -0.00230
N51       0.02740   0.01600   0.01980  -0.00500   0.01250  -0.00240
O52       0.02640   0.05150   0.02100  -0.01500   0.00620  -0.00270
O53       0.03070   0.04890   0.01630  -0.00290   0.00310   0.00160
O54       0.04240   0.02310   0.04400  -0.00890   0.03340  -0.00490
O55       0.05540   0.01760   0.03770  -0.01290   0.03080  -0.01000
Zn56      0.02280   0.01720   0.01630   0.00010   0.01000   0.00117
C57       0.02400   0.02800   0.02040  -0.00050   0.00930   0.00440
C58       0.02700   0.04200   0.01550   0.00500   0.01100   0.00200
C61       0.02380   0.01840   0.02270   0.00200   0.01030  -0.00210
C62       0.03100   0.02300   0.02400   0.00490   0.01610   0.00440
C65       0.02330   0.02570   0.01910   0.00210   0.00810  -0.00330
C67       0.01570   0.02250   0.02120   0.00420   0.00990   0.00160
C68       0.01360   0.02030   0.02210   0.00460   0.00740   0.00450
C69       0.02040   0.03200   0.02080   0.00820   0.00880  -0.00050
C71       0.02400   0.03200   0.03300  -0.00010   0.00930  -0.01180
C73       0.02900   0.01740   0.05400  -0.00190   0.02200  -0.00360
C75       0.02400   0.02500   0.03700   0.00430   0.01620   0.00850
Cl77      0.04640   0.02420   0.02600   0.00850   0.02270   0.00130
N78       0.02080   0.02340   0.01470   0.00490   0.00590   0.00230
N79       0.02740   0.01600   0.01980   0.00500   0.01250   0.00240
O80       0.02640   0.05150   0.02100   0.01500   0.00620   0.00270
O81       0.03070   0.04890   0.01630   0.00290   0.00310  -0.00160
O82       0.04240   0.02310   0.04400   0.00890   0.03340   0.00490
O83       0.05540   0.01760   0.03770   0.01290   0.03080   0.01000
Zn84      0.02280   0.01720   0.01630  -0.00010   0.01000  -0.00117
C85       0.02400   0.02800   0.02040   0.00050   0.00930  -0.00440
C86       0.02700   0.04200   0.01550  -0.00500   0.01100  -0.00200
C89       0.02380   0.01840   0.02270  -0.00200   0.01030   0.00210
C90       0.03100   0.02300   0.02400  -0.00490   0.01610  -0.00440
C93       0.02330   0.02570   0.01910  -0.00210   0.00810   0.00330
C95       0.01570   0.02250   0.02120  -0.00420   0.00990  -0.00160
C96       0.01360   0.02030   0.02210  -0.00460   0.00740  -0.00450
C97       0.02040   0.03200   0.02080  -0.00820   0.00880   0.00050
C99       0.02400   0.03200   0.03300   0.00010   0.00930   0.01180
C101      0.02900   0.01740   0.05400   0.00190   0.02200   0.00360
C103      0.02400   0.02500   0.03700  -0.00430   0.01620  -0.00850
Cl105     0.04640   0.02420   0.02600  -0.00850   0.02270  -0.00130
N106      0.02080   0.02340   0.01470  -0.00490   0.00590  -0.00230
N107      0.02740   0.01600   0.01980  -0.00500   0.01250  -0.00240
O108      0.02640   0.05150   0.02100  -0.01500   0.00620  -0.00270
O109      0.03070   0.04890   0.01630  -0.00290   0.00310   0.00160
O110      0.04240   0.02310   0.04400  -0.00890   0.03340  -0.00490
O111      0.05540   0.01760   0.03770  -0.01290   0.03080  -0.01000
Zn112     0.02280   0.01720   0.01630   0.00010   0.01000   0.00117
loop_
_geom_bond_atom_site_label_1
_geom_bond_atom_site_label_2
_geom_bond_distance
_geom_bond_site_symmetry_2
_ccdc_geom_bond_type
C1     C2      1.523   .     S
C1     O24     1.249   1_545 S
C1     O25     1.244   .     S
C2     H3      0.970   .     S
C2     H4      0.970   .     S
C2     N22     1.464   .     S
C5     C6      1.528   .     S
C5     O26     1.239   1_556 S
C5     O27     1.242   .     S
C6     H7      0.970   .     S
C6     H8      0.970   .     S
C6     N23     1.462   1_556 S
C9     H10     0.930   .     S
C9     N22     1.324   .     S
C9     N23     1.327   .     S
C11    C12     1.390   1_554 S
C11    C19     1.384   1_545 S
C11    N22     1.392   .     S
C12    C11     1.390   1_556 S
C12    C13     1.388   .     S
C12    N23     1.396   1_556 S
C13    H14     0.930   .     S
C13    C15     1.377   1_545 S
C15    C13     1.377   1_565 S
C15    H16     0.930   .     S
C15    C17     1.394   .     S
C17    H18     0.930   .     S
C17    C19     1.379   1_556 S
C19    C11     1.384   1_565 S
C19    H20     0.930   .     S
C19    C17     1.379   1_554 S
Cl21   Zn28    2.266   .     S
N23    C6      1.462   1_554 S
N23    C12     1.396   1_554 S
O24    C1      1.249   1_565 S
O24    Zn28    2.061   1_655 S
O25    Zn84    2.063   .     S
O26    C5      1.239   1_554 S
O26    Zn56    2.090   1_455 S
O27    Zn112   2.043   .     S
Zn28   O24     2.061   1_455 S
Zn28   O81     2.063   .     S
Zn28   O54     2.090   1_455 S
Zn28   O111    2.043   1_565 S
C29    C30     1.523   .     S
C29    O52     1.249   .     S
C29    O53     1.244   .     S
C30    H31     0.970   .     S
C30    H32     0.970   .     S
C30    N50     1.464   .     S
C33    C34     1.528   .     S
C33    O54     1.239   .     S
C33    O55     1.242   .     S
C34    H35     0.970   .     S
C34    H36     0.970   .     S
C34    N51     1.462   .     S
C37    H38     0.930   .     S
C37    N50     1.324   .     S
C37    N51     1.327   .     S
C39    C40     1.390   .     S
C39    C47     1.384   .     S
C39    N50     1.392   .     S
C40    C41     1.388   .     S
C40    N51     1.396   .     S
C41    H42     0.930   .     S
C41    C43     1.377   .     S
C43    H44     0.930   .     S
C43    C45     1.394   .     S
C45    H46     0.930   .     S
C45    C47     1.379   .     S
C47    H48     0.930   .     S
Cl49   Zn56    2.266   .     S
O52    Zn56    2.061   1_455 S
O53    Zn112   2.063   1_554 S
O54    Zn28    2.090   1_655 S
O55    Zn84    2.043   1_565 S
Zn56   O52     2.061   1_655 S
Zn56   O109    2.063   1_554 S
Zn56   O26     2.090   1_655 S
Zn56   O83     2.043   .     S
C57    C58     1.523   .     S
C57    O80     1.249   1_565 S
C57    O81     1.244   .     S
C58    H59     0.970   .     S
C58    H60     0.970   .     S
C58    N78     1.464   .     S
C61    C62     1.528   .     S
C61    O82     1.239   1_554 S
C61    O83     1.242   .     S
C62    H63     0.970   .     S
C62    H64     0.970   .     S
C62    N79     1.462   1_554 S
C65    H66     0.930   .     S
C65    N78     1.324   .     S
C65    N79     1.327   .     S
C67    C68     1.390   1_556 S
C67    C75     1.384   1_565 S
C67    N78     1.392   .     S
C68    C67     1.390   1_554 S
C68    C69     1.388   .     S
C68    N79     1.396   1_554 S
C69    H70     0.930   .     S
C69    C71     1.377   1_565 S
C71    C69     1.377   1_545 S
C71    H72     0.930   .     S
C71    C73     1.394   .     S
C73    H74     0.930   .     S
C73    C75     1.379   1_554 S
C75    C67     1.384   1_545 S
C75    H76     0.930   .     S
C75    C73     1.379   1_556 S
Cl77   Zn84    2.266   .     S
N79    C62     1.462   1_556 S
N79    C68     1.396   1_556 S
O80    C57     1.249   1_545 S
O80    Zn84    2.061   1_455 S
O82    C61     1.239   1_556 S
O82    Zn112   2.090   1_655 S
Zn84   O80     2.061   1_655 S
Zn84   O110    2.090   1_655 S
Zn84   O55     2.043   1_545 S
C85    C86     1.523   .     S
C85    O108    1.249   .     S
C85    O109    1.244   .     S
C86    H87     0.970   .     S
C86    H88     0.970   .     S
C86    N106    1.464   .     S
C89    C90     1.528   .     S
C89    O110    1.239   .     S
C89    O111    1.242   .     S
C90    H91     0.970   .     S
C90    H92     0.970   .     S
C90    N107    1.462   .     S
C93    H94     0.930   .     S
C93    N106    1.324   .     S
C93    N107    1.327   .     S
C95    C96     1.390   .     S
C95    C103    1.384   .     S
C95    N106    1.392   .     S
C96    C97     1.388   .     S
C96    N107    1.396   .     S
C97    H98     0.930   .     S
C97    C99     1.377   .     S
C99    H100    0.930   .     S
C99    C101    1.394   .     S
C101   H102    0.930   .     S
C101   C103    1.379   .     S
C103   H104    0.930   .     S
Cl105  Zn112   2.266   .     S
O108   Zn112   2.061   1_655 S
O109   Zn56    2.063   1_556 S
O110   Zn84    2.090   1_455 S
O111   Zn28    2.043   1_545 S
Zn112  O108    2.061   1_455 S
Zn112  O53     2.063   1_556 S
Zn112  O82     2.090   1_455 S
