data_IMUYOG_FSR
_audit_creation_date              2024-06-11
_audit_creation_method            'Materials Studio'
_symmetry_space_group_name_H-M    'P1'
_symmetry_Int_Tables_number       1
_symmetry_cell_setting            triclinic
loop_
_symmetry_equiv_pos_as_xyz
  x,y,z
_cell_length_a                    4.5464
_cell_length_b                    19.9846
_cell_length_c                    13.9695
_cell_angle_alpha                 90.0000
_cell_angle_beta                  92.6410
_cell_angle_gamma                 90.0000
loop_
_atom_site_label
_atom_site_type_symbol
_atom_site_fract_x
_atom_site_fract_y
_atom_site_fract_z
_atom_site_U_iso_or_equiv
_atom_site_adp_type
_atom_site_occupancy
Ba1    Ba    0.94375   0.60833   0.97045   0.00000  Uiso   1.00
C2     C     0.45100   0.55977   0.23376   0.00000  Uiso   1.00
C3     C     0.34850   0.55052   0.13080   0.00000  Uiso   1.00
C4     C     0.38910   0.61638   0.28765   0.00000  Uiso   1.00
C5     C     0.62350   0.50843   0.27410   0.00000  Uiso   1.00
H6     H     0.66060   0.47050   0.23810   0.00000  Uiso   1.00
O7     O     0.13650   0.51150   0.11135   0.00000  Uiso   1.00
C8     C     0.68370   0.56970   0.42030   0.00000  Uiso   1.00
H9     H     0.76310   0.57360   0.48260   0.00000  Uiso   1.00
C10    C     0.51040   0.62007   0.38150   0.00000  Uiso   1.00
H11    H     0.47270   0.65750   0.41850   0.00000  Uiso   1.00
O12    O     0.80260   0.73978   0.00079   0.00000  Uiso   1.00
N13    N     0.07220   0.67773   0.16353   0.00000  Uiso   1.00
O14    O     0.47750   0.58218   0.06738   0.00000  Uiso   1.00
N15    N     0.11930   0.72248   0.30924   0.00000  Uiso   1.00
C16    C     0.75420   0.76287   0.07974   0.00000  Uiso   1.00
C17    C     0.90730   0.73553   0.16699   0.00000  Uiso   1.00
C18    C     0.93460   0.76377   0.25694   0.00000  Uiso   1.00
C19    C     0.19770   0.67081   0.25135   0.00000  Uiso   1.00
C20    C     0.74000   0.51330   0.36690   0.00000  Uiso   1.00
H21    H     0.85520   0.47890   0.39330   0.00000  Uiso   1.00
O22    O     0.92750   0.84586   0.37686   0.00000  Uiso   1.00
O23    O     0.58640   0.85108   0.25894   0.00000  Uiso   1.00
O24    O     0.57230   0.81220   0.08840   0.00000  Uiso   1.00
H25    H     0.55050   0.81960   0.14540   0.00000  Uiso   1.00
C26    C     0.81020   0.82470   0.29994   0.00000  Uiso   1.00
Ba27   Ba    0.55625   0.10833   0.52955   0.00000  Uiso   1.00
C28    C     0.04900   0.05977   0.26624   0.00000  Uiso   1.00
C29    C     0.15150   0.05052   0.36920   0.00000  Uiso   1.00
C30    C     0.11090   0.11638   0.21235   0.00000  Uiso   1.00
C31    C     0.87650   0.00843   0.22590   0.00000  Uiso   1.00
H32    H     0.83940   0.97050   0.26190   0.00000  Uiso   1.00
O33    O     0.36350   0.01150   0.38865   0.00000  Uiso   1.00
C34    C     0.81630   0.06970   0.07970   0.00000  Uiso   1.00
H35    H     0.73690   0.07360   0.01740   0.00000  Uiso   1.00
C36    C     0.98960   0.12007   0.11850   0.00000  Uiso   1.00
H37    H     0.02730   0.15750   0.08150   0.00000  Uiso   1.00
O38    O     0.69740   0.23978   0.49921   0.00000  Uiso   1.00
N39    N     0.42780   0.17773   0.33647   0.00000  Uiso   1.00
O40    O     0.02250   0.08218   0.43262   0.00000  Uiso   1.00
N41    N     0.38070   0.22248   0.19076   0.00000  Uiso   1.00
C42    C     0.74580   0.26287   0.42026   0.00000  Uiso   1.00
C43    C     0.59270   0.23553   0.33301   0.00000  Uiso   1.00
C44    C     0.56540   0.26377   0.24306   0.00000  Uiso   1.00
C45    C     0.30230   0.17081   0.24865   0.00000  Uiso   1.00
C46    C     0.76000   0.01330   0.13310   0.00000  Uiso   1.00
H47    H     0.64480   0.97890   0.10670   0.00000  Uiso   1.00
O48    O     0.57250   0.34586   0.12314   0.00000  Uiso   1.00
O49    O     0.91360   0.35108   0.24106   0.00000  Uiso   1.00
O50    O     0.92770   0.31220   0.41160   0.00000  Uiso   1.00
H51    H     0.94950   0.31960   0.35460   0.00000  Uiso   1.00
C52    C     0.68980   0.32470   0.20006   0.00000  Uiso   1.00
Ba53   Ba    0.05625   0.39168   0.02955   0.00000  Uiso   1.00
C54    C     0.54900   0.44023   0.76624   0.00000  Uiso   1.00
C55    C     0.65150   0.44948   0.86920   0.00000  Uiso   1.00
C56    C     0.61090   0.38362   0.71235   0.00000  Uiso   1.00
C57    C     0.37650   0.49157   0.72590   0.00000  Uiso   1.00
H58    H     0.33940   0.52950   0.76190   0.00000  Uiso   1.00
O59    O     0.86350   0.48850   0.88865   0.00000  Uiso   1.00
C60    C     0.31630   0.43030   0.57970   0.00000  Uiso   1.00
H61    H     0.23690   0.42640   0.51740   0.00000  Uiso   1.00
C62    C     0.48960   0.37993   0.61850   0.00000  Uiso   1.00
H63    H     0.52730   0.34250   0.58150   0.00000  Uiso   1.00
O64    O     0.19740   0.26022   0.99921   0.00000  Uiso   1.00
N65    N     0.92780   0.32227   0.83647   0.00000  Uiso   1.00
O66    O     0.52250   0.41782   0.93262   0.00000  Uiso   1.00
N67    N     0.88070   0.27752   0.69076   0.00000  Uiso   1.00
C68    C     0.24580   0.23713   0.92026   0.00000  Uiso   1.00
C69    C     0.09270   0.26447   0.83301   0.00000  Uiso   1.00
C70    C     0.06540   0.23623   0.74306   0.00000  Uiso   1.00
C71    C     0.80230   0.32919   0.74865   0.00000  Uiso   1.00
C72    C     0.26000   0.48670   0.63310   0.00000  Uiso   1.00
H73    H     0.14480   0.52110   0.60670   0.00000  Uiso   1.00
O74    O     0.07250   0.15414   0.62314   0.00000  Uiso   1.00
O75    O     0.41360   0.14892   0.74106   0.00000  Uiso   1.00
O76    O     0.42770   0.18780   0.91160   0.00000  Uiso   1.00
H77    H     0.44950   0.18040   0.85460   0.00000  Uiso   1.00
C78    C     0.18980   0.17530   0.70006   0.00000  Uiso   1.00
Ba79   Ba    0.44375   0.89168   0.47045   0.00000  Uiso   1.00
C80    C     0.95100   0.94023   0.73376   0.00000  Uiso   1.00
C81    C     0.84850   0.94948   0.63080   0.00000  Uiso   1.00
C82    C     0.88910   0.88362   0.78765   0.00000  Uiso   1.00
C83    C     0.12350   0.99157   0.77410   0.00000  Uiso   1.00
H84    H     0.16060   0.02950   0.73810   0.00000  Uiso   1.00
O85    O     0.63650   0.98850   0.61135   0.00000  Uiso   1.00
C86    C     0.18370   0.93030   0.92030   0.00000  Uiso   1.00
H87    H     0.26310   0.92640   0.98260   0.00000  Uiso   1.00
C88    C     0.01040   0.87993   0.88150   0.00000  Uiso   1.00
H89    H     0.97270   0.84250   0.91850   0.00000  Uiso   1.00
O90    O     0.30260   0.76022   0.50079   0.00000  Uiso   1.00
N91    N     0.57220   0.82227   0.66353   0.00000  Uiso   1.00
O92    O     0.97750   0.91782   0.56738   0.00000  Uiso   1.00
N93    N     0.61930   0.77752   0.80924   0.00000  Uiso   1.00
C94    C     0.25420   0.73713   0.57974   0.00000  Uiso   1.00
C95    C     0.40730   0.76447   0.66699   0.00000  Uiso   1.00
C96    C     0.43460   0.73623   0.75694   0.00000  Uiso   1.00
C97    C     0.69770   0.82919   0.75135   0.00000  Uiso   1.00
C98    C     0.24000   0.98670   0.86690   0.00000  Uiso   1.00
H99    H     0.35520   0.02110   0.89330   0.00000  Uiso   1.00
O100   O     0.42750   0.65414   0.87686   0.00000  Uiso   1.00
O101   O     0.08640   0.64892   0.75894   0.00000  Uiso   1.00
O102   O     0.07230   0.68780   0.58840   0.00000  Uiso   1.00
H103   H     0.05050   0.68040   0.64540   0.00000  Uiso   1.00
C104   C     0.31020   0.67530   0.79994   0.00000  Uiso   1.00
loop_
_geom_bond_atom_site_label_1
_geom_bond_atom_site_label_2
_geom_bond_distance
_geom_bond_site_symmetry_2
_ccdc_geom_bond_type
Ba1    O7      2.868   1_656 S
Ba1    O12     2.742   1_556 S
Ba1    N13     3.065   1_656 S
Ba1    O14     2.773   1_656 S
Ba1    O59     2.671   .     S
Ba1    O14     2.620   1_556 S
Ba1    O100    2.788   .     S
Ba1    O100    2.766   1_655 S
Ba1    O101    3.160   1_655 S
C2     C3      1.503   .     S
C2     C4      1.395   .     S
C2     C5      1.394   .     S
C3     O7      1.260   .     S
C3     O14     1.256   .     S
C4     C10     1.401   .     S
C4     C19     1.469   .     S
C5     H6      0.929   .     S
C5     C20     1.381   .     S
O7     Ba1     2.868   1_454 S
O7     Ba53    2.671   .     S
C8     H9      0.930   .     S
C8     C10     1.374   .     S
C8     C20     1.382   .     S
C10    H11     0.930   .     S
O12    Ba1     2.742   1_554 S
O12    C16     1.225   .     S
N13    Ba1     3.065   1_454 S
N13    C17     1.379   1_455 S
N13    C19     1.336   .     S
O14    Ba1     2.773   1_454 S
O14    Ba1     2.620   1_554 S
N15    C18     1.365   1_455 S
N15    C19     1.369   .     S
C16    O24     1.296   .     S
C16    C17     1.480   .     S
C17    N13     1.379   1_655 S
C17    C18     1.378   .     S
C18    N15     1.365   1_655 S
C18    C26     1.481   .     S
C20    H21     0.930   .     S
O22    C26     1.251   .     S
O22    Ba79    2.766   .     S
O22    Ba79    2.788   1_655 S
O23    C26     1.260   .     S
O23    Ba79    3.160   .     S
O24    H25     0.820   .     S
Ba27   O33     2.868   .     S
Ba27   O38     2.742   .     S
Ba27   N39     3.065   .     S
Ba27   O40     2.773   .     S
Ba27   O85     2.671   1_545 S
Ba27   O40     2.620   1_655 S
Ba27   O74     2.788   1_655 S
Ba27   O75     3.160   .     S
C28    C29     1.503   .     S
C28    C30     1.395   .     S
C28    C31     1.394   1_455 S
C29    O33     1.260   .     S
C29    O40     1.256   .     S
C30    C36     1.401   1_455 S
C30    C45     1.469   .     S
C31    C28     1.394   1_655 S
C31    H32     0.929   1_545 S
C31    C46     1.381   .     S
H32    C31     0.929   1_565 S
O33    Ba79    2.671   1_545 S
C34    H35     0.930   .     S
C34    C36     1.374   .     S
C34    C46     1.382   .     S
C36    C30     1.401   1_655 S
C36    H37     0.930   1_655 S
H37    C36     0.930   1_455 S
O38    C42     1.225   .     S
N39    C43     1.379   .     S
N39    C45     1.336   .     S
O40    Ba27    2.620   1_455 S
N41    C44     1.365   .     S
N41    C45     1.369   .     S
C42    O50     1.296   .     S
C42    C43     1.480   .     S
C43    C44     1.378   .     S
C44    C52     1.481   .     S
C46    H47     0.930   1_545 S
H47    C46     0.930   1_565 S
O48    C52     1.251   .     S
O48    Ba53    2.766   1_655 S
O49    C52     1.260   .     S
O49    Ba53    3.160   1_655 S
O50    H51     0.820   .     S
Ba53   O59     2.868   1_454 S
Ba53   O64     2.742   1_554 S
Ba53   N65     3.065   1_454 S
Ba53   O66     2.773   1_454 S
Ba53   O66     2.620   1_554 S
Ba53   O48     2.766   1_455 S
Ba53   O49     3.160   1_455 S
C54    C55     1.503   .     S
C54    C56     1.395   .     S
C54    C57     1.394   .     S
C55    O59     1.260   .     S
C55    O66     1.256   .     S
C56    C62     1.401   .     S
C56    C71     1.469   .     S
C57    H58     0.929   .     S
C57    C72     1.381   .     S
O59    Ba53    2.868   1_656 S
C60    H61     0.930   .     S
C60    C62     1.374   .     S
C60    C72     1.382   .     S
C62    H63     0.930   .     S
O64    Ba53    2.742   1_556 S
O64    C68     1.225   .     S
N65    Ba53    3.065   1_656 S
N65    C69     1.379   1_655 S
N65    C71     1.336   .     S
O66    Ba53    2.773   1_656 S
O66    Ba53    2.620   1_556 S
N67    C70     1.365   1_655 S
N67    C71     1.369   .     S
C68    O76     1.296   .     S
C68    C69     1.480   .     S
C69    N65     1.379   1_455 S
C69    C70     1.378   .     S
C70    N67     1.365   1_455 S
C70    C78     1.481   .     S
C72    H73     0.930   .     S
O74    C78     1.251   .     S
O74    Ba27    2.788   1_455 S
O75    C78     1.260   .     S
O76    H77     0.820   .     S
Ba79   O85     2.868   .     S
Ba79   O90     2.742   .     S
Ba79   N91     3.065   .     S
Ba79   O92     2.773   .     S
Ba79   O33     2.671   1_565 S
Ba79   O92     2.620   1_455 S
Ba79   O22     2.788   1_455 S
C80    C81     1.503   .     S
C80    C82     1.395   .     S
C80    C83     1.394   1_655 S
C81    O85     1.260   .     S
C81    O92     1.256   .     S
C82    C88     1.401   1_655 S
C82    C97     1.469   .     S
C83    C80     1.394   1_455 S
C83    H84     0.929   1_565 S
C83    C98     1.381   .     S
H84    C83     0.929   1_545 S
O85    Ba27    2.671   1_565 S
C86    H87     0.930   .     S
C86    C88     1.374   .     S
C86    C98     1.382   .     S
C88    C82     1.401   1_455 S
C88    H89     0.930   1_455 S
H89    C88     0.930   1_655 S
O90    C94     1.225   .     S
N91    C95     1.379   .     S
N91    C97     1.336   .     S
O92    Ba79    2.620   1_655 S
N93    C96     1.365   .     S
N93    C97     1.369   .     S
C94    O102    1.296   .     S
C94    C95     1.480   .     S
C95    C96     1.378   .     S
C96    C104    1.481   .     S
C98    H99     0.930   1_565 S
H99    C98     0.930   1_545 S
O100   C104    1.251   .     S
O100   Ba1     2.766   1_455 S
O101   C104    1.260   .     S
O101   Ba1     3.160   1_455 S
O102   H103    0.820   .     S
