data_ISESOR_FSR
_audit_creation_date              2024-06-11
_audit_creation_method            'Materials Studio'
_symmetry_space_group_name_H-M    'P1'
_symmetry_Int_Tables_number       1
_symmetry_cell_setting            triclinic
loop_
_symmetry_equiv_pos_as_xyz
  x,y,z
_cell_length_a                    8.7631
_cell_length_b                    12.0800
_cell_length_c                    8.6070
_cell_angle_alpha                 90.0000
_cell_angle_beta                  90.0000
_cell_angle_gamma                 90.0000
loop_
_atom_site_label
_atom_site_type_symbol
_atom_site_fract_x
_atom_site_fract_y
_atom_site_fract_z
_atom_site_U_iso_or_equiv
_atom_site_adp_type
_atom_site_occupancy
N1     N     0.29720   0.71670   0.09850   0.00000  Uiso   1.00
N2     N     0.40450   0.63760   0.13080   0.00000  Uiso   1.00
N3     N     0.50760   0.63800   0.02460   0.00000  Uiso   1.00
N4     N     0.47570   0.71810   0.91760   0.00000  Uiso   1.00
N5     N     0.27010   0.84840   0.89410   0.00000  Uiso   1.00
H6     H     0.18605   0.87590   0.93462   0.00000  Uiso   1.00
H7     H     0.30663   0.87586   0.80699   0.00000  Uiso   1.00
O8     O     0.09200   0.54340   0.35030   0.00000  Uiso   1.00
H9     H     0.99915   0.54606   0.37876   0.00000  Uiso   1.00
H10    H     0.10456   0.49028   0.28688   0.00000  Uiso   1.00
C11    C     0.34300   0.76440   0.96560   0.00000  Uiso   1.00
N12    N     0.20280   0.28330   0.09850   0.00000  Uiso   1.00
N13    N     0.09550   0.36240   0.13080   0.00000  Uiso   1.00
N14    N     0.99240   0.36200   0.02460   0.00000  Uiso   1.00
N15    N     0.02430   0.28190   0.91760   0.00000  Uiso   1.00
N16    N     0.22990   0.15160   0.89410   0.00000  Uiso   1.00
H17    H     0.31394   0.12410   0.93462   0.00000  Uiso   1.00
H18    H     0.19337   0.12414   0.80699   0.00000  Uiso   1.00
O19    O     0.40800   0.45660   0.35030   0.00000  Uiso   1.00
H20    H     0.50085   0.45394   0.37876   0.00000  Uiso   1.00
H21    H     0.39544   0.50972   0.28688   0.00000  Uiso   1.00
C22    C     0.15700   0.23560   0.96560   0.00000  Uiso   1.00
N23    N     0.20280   0.21670   0.40150   0.00000  Uiso   1.00
N24    N     0.09550   0.13760   0.36920   0.00000  Uiso   1.00
N25    N     0.99240   0.13800   0.47540   0.00000  Uiso   1.00
N26    N     0.02430   0.21810   0.58240   0.00000  Uiso   1.00
N27    N     0.22990   0.34840   0.60590   0.00000  Uiso   1.00
H28    H     0.31394   0.37590   0.56538   0.00000  Uiso   1.00
H29    H     0.19337   0.37586   0.69301   0.00000  Uiso   1.00
O30    O     0.40800   0.04340   0.14970   0.00000  Uiso   1.00
H31    H     0.50085   0.04606   0.12124   0.00000  Uiso   1.00
H32    H     0.39544  -0.00972   0.21312   0.00000  Uiso   1.00
C33    C     0.15700   0.26440   0.53440   0.00000  Uiso   1.00
N34    N     0.29720   0.78330   0.40150   0.00000  Uiso   1.00
N35    N     0.40450   0.86240   0.36920   0.00000  Uiso   1.00
N36    N     0.50760   0.86200   0.47540   0.00000  Uiso   1.00
N37    N     0.47570   0.78190   0.58240   0.00000  Uiso   1.00
N38    N     0.27010   0.65160   0.60590   0.00000  Uiso   1.00
H39    H     0.18605   0.62410   0.56538   0.00000  Uiso   1.00
H40    H     0.30663   0.62414   0.69301   0.00000  Uiso   1.00
O41    O     0.09200   0.95660   0.14970   0.00000  Uiso   1.00
H42    H     0.99915   0.95394   0.12124   0.00000  Uiso   1.00
H43    H     0.10456   1.00972   0.21312   0.00000  Uiso   1.00
C44    C     0.34300   0.73560   0.53440   0.00000  Uiso   1.00
N45    N     0.70280   0.28330   0.90150   0.00000  Uiso   1.00
N46    N     0.59550   0.36240   0.86920   0.00000  Uiso   1.00
N47    N     0.49240   0.36200   0.97540   0.00000  Uiso   1.00
N48    N     0.52430   0.28190   0.08240   0.00000  Uiso   1.00
N49    N     0.72990   0.15160   0.10590   0.00000  Uiso   1.00
H50    H     0.81395   0.12410   0.06538   0.00000  Uiso   1.00
H51    H     0.69337   0.12414   0.19301   0.00000  Uiso   1.00
O52    O     0.90800   0.45660   0.64970   0.00000  Uiso   1.00
H53    H     0.00085   0.45394   0.62124   0.00000  Uiso   1.00
H54    H     0.89544   0.50972   0.71312   0.00000  Uiso   1.00
C55    C     0.65700   0.23560   0.03440   0.00000  Uiso   1.00
N56    N     0.79720   0.71670   0.90150   0.00000  Uiso   1.00
N57    N     0.90450   0.63760   0.86920   0.00000  Uiso   1.00
N58    N     0.00760   0.63800   0.97540   0.00000  Uiso   1.00
N59    N     0.97570   0.71810   0.08240   0.00000  Uiso   1.00
N60    N     0.77010   0.84840   0.10590   0.00000  Uiso   1.00
H61    H     0.68605   0.87590   0.06538   0.00000  Uiso   1.00
H62    H     0.80663   0.87586   0.19301   0.00000  Uiso   1.00
O63    O     0.59200   0.54340   0.64970   0.00000  Uiso   1.00
H64    H     0.49915   0.54606   0.62124   0.00000  Uiso   1.00
H65    H     0.60456   0.49028   0.71312   0.00000  Uiso   1.00
C66    C     0.84300   0.76440   0.03440   0.00000  Uiso   1.00
N67    N     0.79720   0.78330   0.59850   0.00000  Uiso   1.00
N68    N     0.90450   0.86240   0.63080   0.00000  Uiso   1.00
N69    N     0.00760   0.86200   0.52460   0.00000  Uiso   1.00
N70    N     0.97570   0.78190   0.41760   0.00000  Uiso   1.00
N71    N     0.77010   0.65160   0.39410   0.00000  Uiso   1.00
H72    H     0.68605   0.62410   0.43462   0.00000  Uiso   1.00
H73    H     0.80663   0.62414   0.30699   0.00000  Uiso   1.00
O74    O     0.59200   0.95660   0.85030   0.00000  Uiso   1.00
H75    H     0.49915   0.95394   0.87876   0.00000  Uiso   1.00
H76    H     0.60456   1.00972   0.78688   0.00000  Uiso   1.00
C77    C     0.84300   0.73560   0.46560   0.00000  Uiso   1.00
N78    N     0.70280   0.21670   0.59850   0.00000  Uiso   1.00
N79    N     0.59550   0.13760   0.63080   0.00000  Uiso   1.00
N80    N     0.49240   0.13800   0.52460   0.00000  Uiso   1.00
N81    N     0.52430   0.21810   0.41760   0.00000  Uiso   1.00
N82    N     0.72990   0.34840   0.39410   0.00000  Uiso   1.00
H83    H     0.81395   0.37590   0.43462   0.00000  Uiso   1.00
H84    H     0.69337   0.37586   0.30699   0.00000  Uiso   1.00
O85    O     0.90800   0.04340   0.85030   0.00000  Uiso   1.00
H86    H     0.00085   0.04606   0.87876   0.00000  Uiso   1.00
H87    H     0.89544  -0.00972   0.78688   0.00000  Uiso   1.00
C88    C     0.65700   0.26440   0.46560   0.00000  Uiso   1.00
Cu89   Cu    0.12974   0.75000   0.25000   0.00000  Uiso   1.00
Cu90   Cu    0.37026   0.25000   0.25000   0.00000  Uiso   1.00
Cu91   Cu    0.87026   0.25000   0.75000   0.00000  Uiso   1.00
Cu92   Cu    0.62974   0.75000   0.75000   0.00000  Uiso   1.00
loop_
_geom_bond_atom_site_label_1
_geom_bond_atom_site_label_2
_geom_bond_distance
_geom_bond_site_symmetry_2
_ccdc_geom_bond_type
N1     Cu89    2.004   .     S
N1     N2      1.369   .     S
N1     C11     1.342   1_554 S
N2     N3      1.285   .     S
N3     N4      1.365   1_554 S
N4     N3      1.365   1_556 S
N4     C11     1.355   .     S
N4     Cu92    2.013   .     S
N5     H6      0.880   .     S
N5     H7      0.880   .     S
N5     C11     1.348   .     S
O8     Cu89    2.661   .     S
O8     H9      0.850   1_455 S
O8     H10     0.850   .     S
H9     O8      0.850   1_655 S
C11    N1      1.342   1_556 S
N12    Cu90    2.004   .     S
N12    N13     1.369   .     S
N12    C22     1.342   1_554 S
N13    N14     1.285   1_455 S
N14    N13     1.285   1_655 S
N14    N15     1.365   1_654 S
N15    N14     1.365   1_456 S
N15    C22     1.355   .     S
N15    Cu91    2.013   1_455 S
N16    H17     0.880   .     S
N16    H18     0.880   .     S
N16    C22     1.348   .     S
O19    Cu90    2.661   .     S
O19    H20     0.850   .     S
O19    H21     0.850   .     S
C22    N12     1.342   1_556 S
N23    Cu90    2.004   .     S
N23    N24     1.369   .     S
N23    C33     1.342   .     S
N24    N25     1.285   1_455 S
N25    N24     1.285   1_655 S
N25    N26     1.365   1_655 S
N26    N25     1.365   1_455 S
N26    C33     1.355   .     S
N26    Cu91    2.013   1_455 S
N27    H28     0.880   .     S
N27    H29     0.880   .     S
N27    C33     1.348   .     S
O30    Cu90    2.661   .     S
O30    H31     0.850   .     S
O30    H32     0.850   .     S
N34    Cu89    2.004   .     S
N34    N35     1.369   .     S
N34    C44     1.342   .     S
N35    N36     1.285   .     S
N36    N37     1.365   .     S
N37    C44     1.355   .     S
N37    Cu92    2.013   .     S
N38    H39     0.880   .     S
N38    H40     0.880   .     S
N38    C44     1.348   .     S
O41    Cu89    2.661   .     S
O41    H42     0.850   1_455 S
O41    H43     0.850   .     S
H42    O41     0.850   1_655 S
N45    Cu91    2.004   .     S
N45    N46     1.369   .     S
N45    C55     1.342   1_556 S
N46    N47     1.285   .     S
N47    N48     1.365   1_556 S
N48    N47     1.365   1_554 S
N48    C55     1.355   .     S
N48    Cu90    2.013   .     S
N49    H50     0.880   .     S
N49    H51     0.880   .     S
N49    C55     1.348   .     S
O52    Cu91    2.661   .     S
O52    H53     0.850   1_655 S
O52    H54     0.850   .     S
H53    O52     0.850   1_455 S
C55    N45     1.342   1_554 S
N56    Cu92    2.004   .     S
N56    N57     1.369   .     S
N56    C66     1.342   1_556 S
N57    N58     1.285   1_655 S
N58    N57     1.285   1_455 S
N58    N59     1.365   1_456 S
N59    N58     1.365   1_654 S
N59    C66     1.355   .     S
N59    Cu89    2.013   1_655 S
N60    H61     0.880   .     S
N60    H62     0.880   .     S
N60    C66     1.348   .     S
O63    Cu92    2.661   .     S
O63    H64     0.850   .     S
O63    H65     0.850   .     S
C66    N56     1.342   1_554 S
N67    Cu92    2.004   .     S
N67    N68     1.369   .     S
N67    C77     1.342   .     S
N68    N69     1.285   1_655 S
N69    N68     1.285   1_455 S
N69    N70     1.365   1_455 S
N70    N69     1.365   1_655 S
N70    C77     1.355   .     S
N70    Cu89    2.013   1_655 S
N71    H72     0.880   .     S
N71    H73     0.880   .     S
N71    C77     1.348   .     S
O74    Cu92    2.661   .     S
O74    H75     0.850   .     S
O74    H76     0.850   .     S
N78    Cu91    2.004   .     S
N78    N79     1.369   .     S
N78    C88     1.342   .     S
N79    N80     1.285   .     S
N80    N81     1.365   .     S
N81    C88     1.355   .     S
N81    Cu90    2.013   .     S
N82    H83     0.880   .     S
N82    H84     0.880   .     S
N82    C88     1.348   .     S
O85    Cu91    2.661   .     S
O85    H86     0.850   1_655 S
O85    H87     0.850   .     S
H86    O85     0.850   1_455 S
Cu89   N59     2.013   1_455 S
Cu89   N70     2.013   1_455 S
Cu91   N15     2.013   1_655 S
Cu91   N26     2.013   1_655 S
