data_ITIPOS_FSR
_audit_creation_date              2024-06-11
_audit_creation_method            'Materials Studio'
_symmetry_space_group_name_H-M    'P1'
_symmetry_Int_Tables_number       1
_symmetry_cell_setting            triclinic
loop_
_symmetry_equiv_pos_as_xyz
  x,y,z
_cell_length_a                    17.6943
_cell_length_b                    17.6943
_cell_length_c                    13.2921
_cell_angle_alpha                 90.0000
_cell_angle_beta                  90.0000
_cell_angle_gamma                 120.0000
loop_
_atom_site_label
_atom_site_type_symbol
_atom_site_fract_x
_atom_site_fract_y
_atom_site_fract_z
_atom_site_U_iso_or_equiv
_atom_site_adp_type
_atom_site_occupancy
Cu1    Cu    0.13309   0.57526   0.68047   0.00000  Uiso   1.00
Cu2    Cu    0.13363   0.58025   0.43051   0.00000  Uiso   1.00
N3     N     0.90290   0.50370   0.29320   0.00000  Uiso   1.00
N4     N     0.09930   0.50590   0.31500   0.00000  Uiso   1.00
O5     O     0.17244   0.63846   0.55750   0.00000  Uiso   1.00
H6     H     0.17800   0.68500   0.55900   0.00000  Uiso   1.00
O7     O     0.98490   0.43360   0.20050   0.00000  Uiso   1.00
O8     O     0.69950   0.50100   0.27740   0.00000  Uiso   1.00
O9     O     0.01460   0.57060   0.41170   0.00000  Uiso   1.00
O10    O     0.29620   0.49880   0.33360   0.00000  Uiso   1.00
O11    O     0.23670   0.56110   0.42550   0.00000  Uiso   1.00
O12    O     0.76250   0.44100   0.18550   0.00000  Uiso   1.00
C13    C     0.02260   0.48240   0.27820   0.00000  Uiso   1.00
C14    C     0.97620   0.52250   0.33520   0.00000  Uiso   1.00
C15    C     0.16240   0.48480   0.27290   0.00000  Uiso   1.00
H16    H     0.13440   0.42030   0.26360   0.00000  Uiso   1.00
C17    C     0.23770   0.51590   0.35060   0.00000  Uiso   1.00
C18    C     0.19900   0.53130   0.17110   0.00000  Uiso   1.00
H19    H     0.15070   0.51590   0.12420   0.00000  Uiso   1.00
H20    H     0.23850   0.51290   0.14310   0.00000  Uiso   1.00
H21    H     0.23100   0.59460   0.18160   0.00000  Uiso   1.00
C22    C     0.76240   0.48840   0.25910   0.00000  Uiso   1.00
C23    C     0.88700   0.63590   0.30880   0.00000  Uiso   1.00
H24    H     0.93870   0.66640   0.35180   0.00000  Uiso   1.00
H25    H     0.84470   0.65400   0.32670   0.00000  Uiso   1.00
H26    H     0.90420   0.65040   0.23820   0.00000  Uiso   1.00
C27    C     0.84470   0.53500   0.32430   0.00000  Uiso   1.00
H28    H     0.82880   0.52020   0.39670   0.00000  Uiso   1.00
Cu29   Cu    0.42474   0.55783   0.68047   0.00000  Uiso   1.00
Cu30   Cu    0.41975   0.55338   0.43051   0.00000  Uiso   1.00
N31    N     0.49630   0.39920   0.29320   0.00000  Uiso   1.00
N32    N     0.49410   0.59340   0.31500   0.00000  Uiso   1.00
O33    O     0.36154   0.53398   0.55750   0.00000  Uiso   1.00
H34    H     0.31500   0.49300   0.55900   0.00000  Uiso   1.00
O35    O     0.56640   0.55130   0.20050   0.00000  Uiso   1.00
O36    O     0.49900   0.19850   0.27740   0.00000  Uiso   1.00
O37    O     0.42940   0.44400   0.41170   0.00000  Uiso   1.00
O38    O     0.50120   0.79740   0.33360   0.00000  Uiso   1.00
O39    O     0.43890   0.67560   0.42550   0.00000  Uiso   1.00
O40    O     0.55900   0.32150   0.18550   0.00000  Uiso   1.00
C41    C     0.51760   0.54020   0.27820   0.00000  Uiso   1.00
C42    C     0.47750   0.45370   0.33520   0.00000  Uiso   1.00
C43    C     0.51520   0.67760   0.27290   0.00000  Uiso   1.00
H44    H     0.57970   0.71410   0.26360   0.00000  Uiso   1.00
C45    C     0.48410   0.72180   0.35060   0.00000  Uiso   1.00
C46    C     0.46870   0.66770   0.17110   0.00000  Uiso   1.00
H47    H     0.48410   0.63480   0.12420   0.00000  Uiso   1.00
H48    H     0.48710   0.72560   0.14310   0.00000  Uiso   1.00
H49    H     0.40540   0.63640   0.18160   0.00000  Uiso   1.00
C50    C     0.51160   0.27400   0.25910   0.00000  Uiso   1.00
C51    C     0.36410   0.25110   0.30880   0.00000  Uiso   1.00
H52    H     0.33360   0.27230   0.35180   0.00000  Uiso   1.00
H53    H     0.34600   0.19070   0.32670   0.00000  Uiso   1.00
H54    H     0.34960   0.25380   0.23820   0.00000  Uiso   1.00
C55    C     0.46500   0.30970   0.32430   0.00000  Uiso   1.00
H56    H     0.47980   0.30860   0.39670   0.00000  Uiso   1.00
Cu57   Cu    0.44217   0.86691   0.68047   0.00000  Uiso   1.00
Cu58   Cu    0.44662   0.86637   0.43051   0.00000  Uiso   1.00
N59    N     0.60080   0.09710   0.29320   0.00000  Uiso   1.00
N60    N     0.40660   0.90070   0.31500   0.00000  Uiso   1.00
O61    O     0.46602   0.82756   0.55750   0.00000  Uiso   1.00
H62    H     0.50700   0.82200   0.55900   0.00000  Uiso   1.00
O63    O     0.44870   0.01510   0.20050   0.00000  Uiso   1.00
O64    O     0.80150   0.30050   0.27740   0.00000  Uiso   1.00
O65    O     0.55600   0.98540   0.41170   0.00000  Uiso   1.00
O66    O     0.20260   0.70380   0.33360   0.00000  Uiso   1.00
O67    O     0.32440   0.76330   0.42550   0.00000  Uiso   1.00
O68    O     0.67850   0.23750   0.18550   0.00000  Uiso   1.00
C69    C     0.45980   0.97740   0.27820   0.00000  Uiso   1.00
C70    C     0.54630   0.02380   0.33520   0.00000  Uiso   1.00
C71    C     0.32240   0.83760   0.27290   0.00000  Uiso   1.00
H72    H     0.28590   0.86560   0.26360   0.00000  Uiso   1.00
C73    C     0.27820   0.76230   0.35060   0.00000  Uiso   1.00
C74    C     0.33230   0.80100   0.17110   0.00000  Uiso   1.00
H75    H     0.36520   0.84930   0.12420   0.00000  Uiso   1.00
H76    H     0.27440   0.76150   0.14310   0.00000  Uiso   1.00
H77    H     0.36360   0.76900   0.18160   0.00000  Uiso   1.00
C78    C     0.72600   0.23760   0.25910   0.00000  Uiso   1.00
C79    C     0.74890   0.11300   0.30880   0.00000  Uiso   1.00
H80    H     0.72770   0.06130   0.35180   0.00000  Uiso   1.00
H81    H     0.80930   0.15530   0.32670   0.00000  Uiso   1.00
H82    H     0.74620   0.09580   0.23820   0.00000  Uiso   1.00
C83    C     0.69030   0.15530   0.32430   0.00000  Uiso   1.00
H84    H     0.69140   0.17120   0.39670   0.00000  Uiso   1.00
Cu85   Cu    0.86691   0.42474   0.18047   0.00000  Uiso   1.00
Cu86   Cu    0.86637   0.41975   0.93051   0.00000  Uiso   1.00
N87    N     0.09710   0.49630   0.79320   0.00000  Uiso   1.00
N88    N     0.90070   0.49410   0.81500   0.00000  Uiso   1.00
O89    O     0.82756   0.36154   0.05750   0.00000  Uiso   1.00
H90    H     0.82200   0.31500   0.05900   0.00000  Uiso   1.00
O91    O     0.01510   0.56640   0.70050   0.00000  Uiso   1.00
O92    O     0.30050   0.49900   0.77740   0.00000  Uiso   1.00
O93    O     0.98540   0.42940   0.91170   0.00000  Uiso   1.00
O94    O     0.70380   0.50120   0.83360   0.00000  Uiso   1.00
O95    O     0.76330   0.43890   0.92550   0.00000  Uiso   1.00
O96    O     0.23750   0.55900   0.68550   0.00000  Uiso   1.00
C97    C     0.97740   0.51760   0.77820   0.00000  Uiso   1.00
C98    C     0.02380   0.47750   0.83520   0.00000  Uiso   1.00
C99    C     0.83760   0.51520   0.77290   0.00000  Uiso   1.00
H100   H     0.86560   0.57970   0.76360   0.00000  Uiso   1.00
C101   C     0.76230   0.48410   0.85060   0.00000  Uiso   1.00
C102   C     0.80100   0.46870   0.67110   0.00000  Uiso   1.00
H103   H     0.84930   0.48410   0.62420   0.00000  Uiso   1.00
H104   H     0.76150   0.48710   0.64310   0.00000  Uiso   1.00
H105   H     0.76900   0.40540   0.68160   0.00000  Uiso   1.00
C106   C     0.23760   0.51160   0.75910   0.00000  Uiso   1.00
C107   C     0.11300   0.36410   0.80880   0.00000  Uiso   1.00
H108   H     0.06130   0.33360   0.85180   0.00000  Uiso   1.00
H109   H     0.15530   0.34600   0.82670   0.00000  Uiso   1.00
H110   H     0.09580   0.34960   0.73820   0.00000  Uiso   1.00
C111   C     0.15530   0.46500   0.82430   0.00000  Uiso   1.00
H112   H     0.17120   0.47980   0.89670   0.00000  Uiso   1.00
Cu113  Cu    0.57526   0.44217   0.18047   0.00000  Uiso   1.00
Cu114  Cu    0.58025   0.44662   0.93051   0.00000  Uiso   1.00
N115   N     0.50370   0.60080   0.79320   0.00000  Uiso   1.00
N116   N     0.50590   0.40660   0.81500   0.00000  Uiso   1.00
O117   O     0.63846   0.46602   0.05750   0.00000  Uiso   1.00
H118   H     0.68500   0.50700   0.05900   0.00000  Uiso   1.00
O119   O     0.43360   0.44870   0.70050   0.00000  Uiso   1.00
O120   O     0.50100   0.80150   0.77740   0.00000  Uiso   1.00
O121   O     0.57060   0.55600   0.91170   0.00000  Uiso   1.00
O122   O     0.49880   0.20260   0.83360   0.00000  Uiso   1.00
O123   O     0.56110   0.32440   0.92550   0.00000  Uiso   1.00
O124   O     0.44100   0.67850   0.68550   0.00000  Uiso   1.00
C125   C     0.48240   0.45980   0.77820   0.00000  Uiso   1.00
C126   C     0.52250   0.54630   0.83520   0.00000  Uiso   1.00
C127   C     0.48480   0.32240   0.77290   0.00000  Uiso   1.00
H128   H     0.42030   0.28590   0.76360   0.00000  Uiso   1.00
C129   C     0.51590   0.27820   0.85060   0.00000  Uiso   1.00
C130   C     0.53130   0.33230   0.67110   0.00000  Uiso   1.00
H131   H     0.51590   0.36520   0.62420   0.00000  Uiso   1.00
H132   H     0.51290   0.27440   0.64310   0.00000  Uiso   1.00
H133   H     0.59460   0.36360   0.68160   0.00000  Uiso   1.00
C134   C     0.48840   0.72600   0.75910   0.00000  Uiso   1.00
C135   C     0.63590   0.74890   0.80880   0.00000  Uiso   1.00
H136   H     0.66640   0.72770   0.85180   0.00000  Uiso   1.00
H137   H     0.65400   0.80930   0.82670   0.00000  Uiso   1.00
H138   H     0.65040   0.74620   0.73820   0.00000  Uiso   1.00
C139   C     0.53500   0.69030   0.82430   0.00000  Uiso   1.00
H140   H     0.52020   0.69140   0.89670   0.00000  Uiso   1.00
Cu141  Cu    0.55783   0.13309   0.18047   0.00000  Uiso   1.00
Cu142  Cu    0.55338   0.13363   0.93051   0.00000  Uiso   1.00
N143   N     0.39920   0.90290   0.79320   0.00000  Uiso   1.00
N144   N     0.59340   0.09930   0.81500   0.00000  Uiso   1.00
O145   O     0.53398   0.17244   0.05750   0.00000  Uiso   1.00
H146   H     0.49300   0.17800   0.05900   0.00000  Uiso   1.00
O147   O     0.55130   0.98490   0.70050   0.00000  Uiso   1.00
O148   O     0.19850   0.69950   0.77740   0.00000  Uiso   1.00
O149   O     0.44400   0.01460   0.91170   0.00000  Uiso   1.00
O150   O     0.79740   0.29620   0.83360   0.00000  Uiso   1.00
O151   O     0.67560   0.23670   0.92550   0.00000  Uiso   1.00
O152   O     0.32150   0.76250   0.68550   0.00000  Uiso   1.00
C153   C     0.54020   0.02260   0.77820   0.00000  Uiso   1.00
C154   C     0.45370   0.97620   0.83520   0.00000  Uiso   1.00
C155   C     0.67760   0.16240   0.77290   0.00000  Uiso   1.00
H156   H     0.71410   0.13440   0.76360   0.00000  Uiso   1.00
C157   C     0.72180   0.23770   0.85060   0.00000  Uiso   1.00
C158   C     0.66770   0.19900   0.67110   0.00000  Uiso   1.00
H159   H     0.63480   0.15070   0.62420   0.00000  Uiso   1.00
H160   H     0.72560   0.23850   0.64310   0.00000  Uiso   1.00
H161   H     0.63640   0.23100   0.68160   0.00000  Uiso   1.00
C162   C     0.27400   0.76240   0.75910   0.00000  Uiso   1.00
C163   C     0.25110   0.88700   0.80880   0.00000  Uiso   1.00
H164   H     0.27230   0.93870   0.85180   0.00000  Uiso   1.00
H165   H     0.19070   0.84470   0.82670   0.00000  Uiso   1.00
H166   H     0.25380   0.90420   0.73820   0.00000  Uiso   1.00
C167   C     0.30970   0.84470   0.82430   0.00000  Uiso   1.00
H168   H     0.30860   0.82880   0.89670   0.00000  Uiso   1.00
Ca169  Ca    0.33333   0.66667   0.55630   0.00000  Uiso   1.00
Ca170  Ca    0.66667   0.33333   0.05630   0.00000  Uiso   1.00
loop_
_geom_bond_atom_site_label_1
_geom_bond_atom_site_label_2
_geom_bond_distance
_geom_bond_site_symmetry_2
_ccdc_geom_bond_type
Cu1    O5      1.905   .     S
Cu1    N87     1.927   .     S
Cu1    O91     2.031   .     S
Cu1    O148    2.300   .     S
Cu1    O96     2.008   .     S
Cu2    N4      1.913   .     S
Cu2    O5      1.917   .     S
Cu2    O9      2.042   .     S
Cu2    O11     2.016   .     S
Cu2    O66     2.293   .     S
N3     C14     1.293   .     S
N3     C27     1.452   .     S
N3     Cu85    1.927   .     S
N4     C13     1.300   .     S
N4     C15     1.455   .     S
O5     Ca169   2.633   .     S
O5     H6      0.779   .     S
O7     C13     1.297   1_655 S
O7     Cu85    2.031   .     S
O8     C22     1.263   .     S
O8     Cu113   2.300   .     S
O9     C14     1.281   1_455 S
O10    C17     1.236   .     S
O10    Cu30    2.293   .     S
O11    C17     1.283   .     S
O11    Ca169   2.498   .     S
O12    C22     1.289   .     S
O12    Ca170   2.495   .     S
O12    Cu85    2.008   .     S
C13    O7      1.297   1_455 S
C13    C14     1.528   1_455 S
C14    C13     1.528   1_655 S
C14    O9      1.281   1_655 S
C15    H16     0.999   .     S
C15    C18     1.547   .     S
C15    C17     1.553   .     S
C18    H19     0.980   .     S
C18    H20     0.980   .     S
C18    H21     0.980   .     S
C22    C27     1.533   .     S
C23    H24     0.980   .     S
C23    H25     0.979   .     S
C23    H26     0.980   .     S
C23    C27     1.566   .     S
C27    H28     1.000   .     S
Cu29   O33     1.905   .     S
Cu29   N115    1.927   .     S
Cu29   O119    2.031   .     S
Cu29   O92     2.300   .     S
Cu29   O124    2.008   .     S
Cu30   N32     1.913   .     S
Cu30   O33     1.917   .     S
Cu30   O37     2.042   .     S
Cu30   O39     2.016   .     S
N31    C42     1.293   .     S
N31    C55     1.452   .     S
N31    Cu113   1.927   .     S
N32    C41     1.300   .     S
N32    C43     1.455   .     S
O33    Ca169   2.633   .     S
O33    H34     0.779   .     S
O35    C41     1.297   .     S
O35    Cu113   2.031   .     S
O36    C50     1.263   .     S
O36    Cu141   2.300   .     S
O37    C42     1.281   .     S
O38    C45     1.236   .     S
O38    Cu58    2.293   .     S
O39    C45     1.283   .     S
O39    Ca169   2.498   .     S
O40    C50     1.289   .     S
O40    Ca170   2.495   .     S
O40    Cu113   2.008   .     S
C41    C42     1.528   .     S
C43    H44     0.999   .     S
C43    C46     1.547   .     S
C43    C45     1.553   .     S
C46    H47     0.980   .     S
C46    H48     0.980   .     S
C46    H49     0.980   .     S
C50    C55     1.533   .     S
C51    H52     0.980   .     S
C51    H53     0.979   .     S
C51    H54     0.980   .     S
C51    C55     1.566   .     S
C55    H56     1.000   .     S
Cu57   O61     1.905   .     S
Cu57   N143    1.927   .     S
Cu57   O147    2.031   .     S
Cu57   O120    2.300   .     S
Cu57   O152    2.008   .     S
Cu58   N60     1.913   .     S
Cu58   O61     1.917   .     S
Cu58   O65     2.042   .     S
Cu58   O67     2.016   .     S
N59    C70     1.293   .     S
N59    C83     1.452   .     S
N59    Cu141   1.927   .     S
N60    C69     1.300   .     S
N60    C71     1.455   .     S
O61    Ca169   2.633   .     S
O61    H62     0.779   .     S
O63    C69     1.297   1_545 S
O63    Cu141   2.031   .     S
O64    C78     1.263   .     S
O64    Cu85    2.300   .     S
O65    C70     1.281   1_565 S
O66    C73     1.236   .     S
O67    C73     1.283   .     S
O67    Ca169   2.498   .     S
O68    C78     1.289   .     S
O68    Ca170   2.495   .     S
O68    Cu141   2.008   .     S
C69    O63     1.297   1_565 S
C69    C70     1.528   1_565 S
C70    C69     1.528   1_545 S
C70    O65     1.281   1_545 S
C71    H72     0.999   .     S
C71    C74     1.547   .     S
C71    C73     1.553   .     S
C74    H75     0.980   .     S
C74    H76     0.980   .     S
C74    H77     0.980   .     S
C78    C83     1.533   .     S
C79    H80     0.980   .     S
C79    H81     0.979   .     S
C79    H82     0.980   .     S
C79    C83     1.566   .     S
C83    H84     1.000   .     S
Cu85   O89     1.905   .     S
Cu86   N88     1.913   .     S
Cu86   O89     1.917   1_556 S
Cu86   O93     2.042   .     S
Cu86   O95     2.016   .     S
Cu86   O150    2.293   .     S
N87    C98     1.293   .     S
N87    C111    1.452   .     S
N88    C97     1.300   .     S
N88    C99     1.455   .     S
O89    Ca170   2.633   .     S
O89    Cu86    1.917   1_554 S
O89    H90     0.779   .     S
O91    C97     1.297   1_455 S
O92    C106    1.263   .     S
O93    C98     1.281   1_655 S
O94    C101    1.236   .     S
O94    Cu114   2.293   .     S
O95    C101    1.283   .     S
O95    Ca170   2.498   1_556 S
O96    C106    1.289   .     S
O96    Ca169   2.495   .     S
C97    O91     1.297   1_655 S
C97    C98     1.528   1_655 S
C98    C97     1.528   1_455 S
C98    O93     1.281   1_455 S
C99    H100    0.999   .     S
C99    C102    1.547   .     S
C99    C101    1.553   .     S
C102   H103    0.980   .     S
C102   H104    0.980   .     S
C102   H105    0.980   .     S
C106   C111    1.533   .     S
C107   H108    0.980   .     S
C107   H109    0.979   .     S
C107   H110    0.980   .     S
C107   C111    1.566   .     S
C111   H112    1.000   .     S
Cu113  O117    1.905   .     S
Cu114  N116    1.913   .     S
Cu114  O117    1.917   1_556 S
Cu114  O121    2.042   .     S
Cu114  O123    2.016   .     S
N115   C126    1.293   .     S
N115   C139    1.452   .     S
N116   C125    1.300   .     S
N116   C127    1.455   .     S
O117   Ca170   2.633   .     S
O117   Cu114   1.917   1_554 S
O117   H118    0.779   .     S
O119   C125    1.297   .     S
O120   C134    1.263   .     S
O121   C126    1.281   .     S
O122   C129    1.236   .     S
O122   Cu142   2.293   .     S
O123   C129    1.283   .     S
O123   Ca170   2.498   1_556 S
O124   C134    1.289   .     S
O124   Ca169   2.495   .     S
C125   C126    1.528   .     S
C127   H128    0.999   .     S
C127   C130    1.547   .     S
C127   C129    1.553   .     S
C130   H131    0.980   .     S
C130   H132    0.980   .     S
C130   H133    0.980   .     S
C134   C139    1.533   .     S
C135   H136    0.980   .     S
C135   H137    0.979   .     S
C135   H138    0.980   .     S
C135   C139    1.566   .     S
C139   H140    1.000   .     S
Cu141  O145    1.905   .     S
Cu142  N144    1.913   .     S
Cu142  O145    1.917   1_556 S
Cu142  O149    2.042   .     S
Cu142  O151    2.016   .     S
N143   C154    1.293   .     S
N143   C167    1.452   .     S
N144   C153    1.300   .     S
N144   C155    1.455   .     S
O145   Ca170   2.633   .     S
O145   Cu142   1.917   1_554 S
O145   H146    0.779   .     S
O147   C153    1.297   1_565 S
O148   C162    1.263   .     S
O149   C154    1.281   1_545 S
O150   C157    1.236   .     S
O151   C157    1.283   .     S
O151   Ca170   2.498   1_556 S
O152   C162    1.289   .     S
O152   Ca169   2.495   .     S
C153   O147    1.297   1_545 S
C153   C154    1.528   1_545 S
C154   C153    1.528   1_565 S
C154   O149    1.281   1_565 S
C155   H156    0.999   .     S
C155   C158    1.547   .     S
C155   C157    1.553   .     S
C158   H159    0.980   .     S
C158   H160    0.980   .     S
C158   H161    0.980   .     S
C162   C167    1.533   .     S
C163   H164    0.980   .     S
C163   H165    0.979   .     S
C163   H166    0.980   .     S
C163   C167    1.566   .     S
C167   H168    1.000   .     S
Ca170  O123    2.498   1_554 S
Ca170  O151    2.498   1_554 S
Ca170  O95     2.498   1_554 S
