data_IVOBIG_directopt
_audit_creation_date              2024-06-11
_audit_creation_method            'Materials Studio'
_symmetry_space_group_name_H-M    'P1'
_symmetry_Int_Tables_number       1
_symmetry_cell_setting            triclinic
loop_
_symmetry_equiv_pos_as_xyz
  x,y,z
_cell_length_a                    7.9828
_cell_length_b                    9.2716
_cell_length_c                    9.3359
_cell_angle_alpha                 62.0500
_cell_angle_beta                  83.0420
_cell_angle_gamma                 73.2810
loop_
_atom_site_label
_atom_site_type_symbol
_atom_site_fract_x
_atom_site_fract_y
_atom_site_fract_z
_atom_site_U_iso_or_equiv
_atom_site_adp_type
_atom_site_occupancy
Zn1    Zn    0.02101   0.32855   0.83073   0.00000  Uiso   1.00
Rb2    Rb    0.54639   0.42301   0.81400   0.00000  Uiso   1.00
O3     O     0.84370   0.48259   0.65464   0.00000  Uiso   1.00
O4     O     0.17516   0.42053   0.90667   0.00000  Uiso   1.00
O5     O     0.57068   0.39799   0.51806   0.00000  Uiso   1.00
O6     O     0.14811   0.55783   0.06555   0.00000  Uiso   1.00
O7     O     0.84038   0.63036   0.36756   0.00000  Uiso   1.00
O8     O     0.16628   0.09017   0.95303   0.00000  Uiso   1.00
O9     O     0.61557   0.12508   0.70694   0.00000  Uiso   1.00
C10    C     0.08913   0.49464   0.99155   0.00000  Uiso   1.00
C11    C     0.91368   0.53406   0.50000   0.00000  Uiso   1.00
O12    O     0.14354   0.81279   0.10179   0.00000  Uiso   1.00
C13    C     0.94100   0.03918   0.55133   0.00000  Uiso   1.00
C14    C     0.76553   0.15847   0.46383   0.00000  Uiso   1.00
C15    C     0.08554   0.97339   0.01530   0.00000  Uiso   1.00
C16    C     0.64644   0.22468   0.57049   0.00000  Uiso   1.00
O17    O     0.38477   0.20835   0.03096   0.00000  Uiso   1.00
O18    O     0.50377   0.31058   0.13289   0.00000  Uiso   1.00
H19    H     0.91506   0.93491   0.66800   0.00000  Uiso   1.00
H20    H     0.01055   0.11175   0.57872   0.00000  Uiso   1.00
H21    H     0.69818   0.08806   0.43131   0.00000  Uiso   1.00
H22    H     0.79064   0.26654   0.35060   0.00000  Uiso   1.00
Zn23   Zn    0.97899   0.67145   0.16927   0.00000  Uiso   1.00
Rb24   Rb    0.45361   0.57699   0.18600   0.00000  Uiso   1.00
O25    O     0.15630   0.51741   0.34536   0.00000  Uiso   1.00
O26    O     0.82484   0.57947   0.09333   0.00000  Uiso   1.00
O27    O     0.42932   0.60201   0.48194   0.00000  Uiso   1.00
O28    O     0.85189   0.44217   0.93445   0.00000  Uiso   1.00
O29    O     0.15962   0.36964   0.63244   0.00000  Uiso   1.00
O30    O     0.83372   0.90983   0.04697   0.00000  Uiso   1.00
O31    O     0.38443   0.87492   0.29306   0.00000  Uiso   1.00
C32    C     0.91087   0.50536   0.00845   0.00000  Uiso   1.00
C33    C     0.08632   0.46594   0.50000   0.00000  Uiso   1.00
O34    O     0.85646   0.18721   0.89821   0.00000  Uiso   1.00
C35    C     0.05900   0.96082   0.44867   0.00000  Uiso   1.00
C36    C     0.23447   0.84153   0.53617   0.00000  Uiso   1.00
C37    C     0.91446   0.02661   0.98470   0.00000  Uiso   1.00
C38    C     0.35356   0.77532   0.42951   0.00000  Uiso   1.00
O39    O     0.61523   0.79165   0.96904   0.00000  Uiso   1.00
O40    O     0.49623   0.68942   0.86711   0.00000  Uiso   1.00
H41    H     0.08494   0.06509   0.33200   0.00000  Uiso   1.00
H42    H     0.98945   0.88825   0.42128   0.00000  Uiso   1.00
H43    H     0.30182   0.91194   0.56869   0.00000  Uiso   1.00
H44    H     0.20936   0.73346   0.64940   0.00000  Uiso   1.00
loop_
_geom_bond_atom_site_label_1
_geom_bond_atom_site_label_2
_geom_bond_distance
_geom_bond_site_symmetry_2
_ccdc_geom_bond_type
Zn1    O4      2.031   .     S
Zn1    O8      2.003   .     S
Zn1    O29     1.970   .     S
Zn1    O3      1.986   1_455 S
Zn1    O28     1.921   1_455 S
Zn1    O34     1.964   1_455 S
Rb2    O3      2.698   .     S
Rb2    O5      2.858   .     S
Rb2    O17     2.606   1_556 S
Rb2    O4      2.988   .     S
Rb2    O27     2.868   .     S
Rb2    O40     2.653   .     S
Rb2    O34     2.697   .     S
Rb2    O18     2.667   1_556 S
Rb2    O28     2.889   .     S
O3     C11     1.391   .     S
O3     Zn1     1.986   1_655 S
O4     C10     1.296   .     A
O5     C16     1.401   .     S
O5     Rb24    2.868   .     S
O6     C10     1.288   1_554 A
O6     Zn23    1.921   1_455 S
O6     Rb24    2.889   .     S
O7     C11     1.228   .     D
O7     Zn23    1.970   .     S
O8     C15     1.283   1_546 A
O9     C16     1.220   .     D
C10    O6      1.288   1_556 A
C10    C32     1.392   1_456 S
C11    C33     1.341   1_655 S
O12    C15     1.285   .     A
O12    Rb24    2.697   .     S
O12    Zn23    1.964   1_455 S
C13    C14     1.546   .     S
C13    C35     1.541   1_645 S
C13    H19     1.112   1_545 S
C13    H20     1.112   1_655 S
C14    C16     1.510   .     S
C14    H21     1.111   .     S
C14    H22     1.110   .     S
C15    O8      1.283   1_564 A
C15    C37     1.329   1_464 S
O17    Rb2     2.606   1_554 S
O18    Rb24    2.653   .     S
O18    Rb2     2.667   1_554 S
H19    C13     1.112   1_565 S
H20    C13     1.112   1_455 S
Zn23   O26     2.031   .     S
Zn23   O30     2.003   .     S
Zn23   O25     1.986   1_655 S
Zn23   O6      1.921   1_655 S
Zn23   O12     1.964   1_655 S
Rb24   O25     2.698   .     S
Rb24   O27     2.858   .     S
Rb24   O39     2.606   1_554 S
Rb24   O26     2.988   .     S
Rb24   O40     2.667   1_554 S
O25    C33     1.391   .     S
O25    Zn23    1.986   1_455 S
O26    C32     1.296   .     A
O27    C38     1.401   .     S
O28    C32     1.288   1_556 A
O28    Zn1     1.921   1_655 S
O29    C33     1.228   .     D
O30    C37     1.283   1_564 A
O31    C38     1.220   .     D
C32    O28     1.288   1_554 A
C32    C10     1.392   1_654 S
C33    C11     1.341   1_455 S
O34    C37     1.285   .     A
O34    Zn1     1.964   1_655 S
C35    C36     1.546   .     S
C35    C13     1.541   1_465 S
C35    H41     1.112   1_565 S
C35    H42     1.112   1_455 S
C36    C38     1.510   .     S
C36    H43     1.111   .     S
C36    H44     1.110   .     S
C37    O30     1.283   1_546 A
C37    C15     1.329   1_646 S
O39    Rb24    2.606   1_556 S
O40    Rb24    2.667   1_556 S
H41    C35     1.112   1_545 S
H42    C35     1.112   1_655 S
