data_JEFROE_FSR
_audit_creation_date              2024-06-11
_audit_creation_method            'Materials Studio'
_symmetry_space_group_name_H-M    'P1'
_symmetry_Int_Tables_number       1
_symmetry_cell_setting            triclinic
loop_
_symmetry_equiv_pos_as_xyz
  x,y,z
_cell_length_a                    5.9630
_cell_length_b                    18.2700
_cell_length_c                    18.9640
_cell_angle_alpha                 90.0000
_cell_angle_beta                  95.6200
_cell_angle_gamma                 90.0000
loop_
_atom_site_label
_atom_site_type_symbol
_atom_site_fract_x
_atom_site_fract_y
_atom_site_fract_z
_atom_site_U_iso_or_equiv
_atom_site_adp_type
_atom_site_occupancy
Pr1    Pr    0.41260   0.66677   0.03429   0.00000  Uiso   1.00
C2     C     0.59730   0.56550   0.81490   0.00000  Uiso   1.00
H3     H     0.74830   0.58850   0.82040   0.00000  Uiso   1.00
H4     H     0.59970   0.52610   0.77920   0.00000  Uiso   1.00
C5     C     0.42450   0.62190   0.78900   0.00000  Uiso   1.00
C6     C     0.44660   0.69330   0.81420   0.00000  Uiso   1.00
H7     H     0.57750   0.70560   0.84450   0.00000  Uiso   1.00
C8     C     0.28560   0.74810   0.79720   0.00000  Uiso   1.00
C9     C     0.31990   0.82230   0.83190   0.00000  Uiso   1.00
H10    H     0.24930   0.86040   0.79990   0.00000  Uiso   1.00
H11    H     0.48320   0.83290   0.83990   0.00000  Uiso   1.00
C12    C     0.09390   0.72960   0.75160   0.00000  Uiso   1.00
C13    C     0.90880   0.78300   0.72780   0.00000  Uiso   1.00
H14    H     0.88340   0.81530   0.76820   0.00000  Uiso   1.00
H15    H     0.76810   0.75520   0.71530   0.00000  Uiso   1.00
C16    C     0.19220   0.52920   0.71110   0.00000  Uiso   1.00
H17    H     0.02820   0.51940   0.70510   0.00000  Uiso   1.00
H18    H     0.26350   0.49200   0.74400   0.00000  Uiso   1.00
C19    C     0.23230   0.60410   0.74320   0.00000  Uiso   1.00
C20    C     0.07350   0.65780   0.72610   0.00000  Uiso   1.00
H21    H     0.94360   0.64530   0.69540   0.00000  Uiso   1.00
P22    P     0.30370   0.52037   0.62640   0.00000  Uiso   1.00
P23    P     0.19930   0.82571   0.91515   0.00000  Uiso   1.00
P24    P     0.53840   0.52669   0.89788   0.00000  Uiso   1.00
P25    P     0.96140   0.83904   0.65394   0.00000  Uiso   1.00
O26    O     0.56410   0.52790   0.64620   0.00000  Uiso   1.00
H27    H     0.62500   0.54600   0.61300   0.00000  Uiso   1.00
O28    O     0.21860   0.58420   0.57950   0.00000  Uiso   1.00
O29    O     0.24690   0.44650   0.59430   0.00000  Uiso   1.00
O30    O     0.26340   0.75960   0.95850   0.00000  Uiso   1.00
O31    O     0.28140   0.89850   0.94930   0.00000  Uiso   1.00
H32    H     0.27500   0.90800   0.99240   0.00000  Uiso   1.00
O33    O     0.93860   0.82820   0.89900   0.00000  Uiso   1.00
H34    H     0.88100   0.87000   0.89900   0.00000  Uiso   1.00
O35    O     0.27940   0.50710   0.88860   0.00000  Uiso   1.00
H36    H     0.27100   0.46140   0.88700   0.00000  Uiso   1.00
O37    O     0.57660   0.58340   0.95510   0.00000  Uiso   1.00
O38    O     0.66810   0.45580   0.90960   0.00000  Uiso   1.00
O39    O     0.09960   0.80010   0.60240   0.00000  Uiso   1.00
O40    O     0.73550   0.86550   0.61890   0.00000  Uiso   1.00
O41    O     0.09410   0.90640   0.68830   0.00000  Uiso   1.00
H42    H     0.16900   0.92400   0.65700   0.00000  Uiso   1.00
O43    O     0.07430   0.60980   0.96420   0.00000  Uiso   1.00
H44    H     0.09700   0.56800   0.94900   0.00000  Uiso   1.00
H45    H     0.93500   0.61700   0.96000   0.00000  Uiso   1.00
O46    O     0.50170   0.78460   0.10440   0.00000  Uiso   1.00
H47    H     0.58200   0.81200   0.08300   0.00000  Uiso   1.00
H48    H     0.37900   0.80500   0.10800   0.00000  Uiso   1.00
O49    O     0.75760   0.72980   0.99560   0.00000  Uiso   1.00
H50    H     0.78700   0.75600   0.96100   0.00000  Uiso   1.00
H51    H     0.87200   0.73200   0.02500   0.00000  Uiso   1.00
Pr52   Pr    0.58740   0.16677   0.46571   0.00000  Uiso   1.00
C53    C     0.40270   0.06550   0.68510   0.00000  Uiso   1.00
H54    H     0.25170   0.08850   0.67960   0.00000  Uiso   1.00
H55    H     0.40030   0.02610   0.72080   0.00000  Uiso   1.00
C56    C     0.57550   0.12190   0.71100   0.00000  Uiso   1.00
C57    C     0.55340   0.19330   0.68580   0.00000  Uiso   1.00
H58    H     0.42250   0.20560   0.65550   0.00000  Uiso   1.00
C59    C     0.71440   0.24810   0.70280   0.00000  Uiso   1.00
C60    C     0.68010   0.32230   0.66810   0.00000  Uiso   1.00
H61    H     0.75070   0.36040   0.70010   0.00000  Uiso   1.00
H62    H     0.51680   0.33290   0.66010   0.00000  Uiso   1.00
C63    C     0.90610   0.22960   0.74840   0.00000  Uiso   1.00
C64    C     0.09120   0.28300   0.77220   0.00000  Uiso   1.00
H65    H     0.11660   0.31530   0.73180   0.00000  Uiso   1.00
H66    H     0.23190   0.25520   0.78470   0.00000  Uiso   1.00
C67    C     0.80780   0.02920   0.78890   0.00000  Uiso   1.00
H68    H     0.97180   0.01940   0.79490   0.00000  Uiso   1.00
H69    H     0.73650   0.99200   0.75600   0.00000  Uiso   1.00
C70    C     0.76770   0.10410   0.75680   0.00000  Uiso   1.00
C71    C     0.92650   0.15780   0.77390   0.00000  Uiso   1.00
H72    H     0.05640   0.14530   0.80460   0.00000  Uiso   1.00
P73    P     0.69630   0.02037   0.87360   0.00000  Uiso   1.00
P74    P     0.80070   0.32571   0.58485   0.00000  Uiso   1.00
P75    P     0.46160   0.02669   0.60212   0.00000  Uiso   1.00
P76    P     0.03860   0.33904   0.84606   0.00000  Uiso   1.00
O77    O     0.43590   0.02790   0.85380   0.00000  Uiso   1.00
H78    H     0.37500   0.04600   0.88700   0.00000  Uiso   1.00
O79    O     0.78140   0.08420   0.92050   0.00000  Uiso   1.00
O80    O     0.75310   0.94650   0.90570   0.00000  Uiso   1.00
O81    O     0.73660   0.25960   0.54150   0.00000  Uiso   1.00
O82    O     0.71860   0.39850   0.55070   0.00000  Uiso   1.00
H83    H     0.72500   0.40800   0.50760   0.00000  Uiso   1.00
O84    O     0.06140   0.32820   0.60100   0.00000  Uiso   1.00
H85    H     0.11900   0.37000   0.60100   0.00000  Uiso   1.00
O86    O     0.72060   0.00710   0.61140   0.00000  Uiso   1.00
H87    H     0.72900   0.96140   0.61300   0.00000  Uiso   1.00
O88    O     0.42340   0.08340   0.54490   0.00000  Uiso   1.00
O89    O     0.33190   0.95580   0.59040   0.00000  Uiso   1.00
O90    O     0.90040   0.30010   0.89760   0.00000  Uiso   1.00
O91    O     0.26450   0.36550   0.88110   0.00000  Uiso   1.00
O92    O     0.90590   0.40640   0.81170   0.00000  Uiso   1.00
H93    H     0.83100   0.42400   0.84300   0.00000  Uiso   1.00
O94    O     0.92570   0.10980   0.53580   0.00000  Uiso   1.00
H95    H     0.90300   0.06800   0.55100   0.00000  Uiso   1.00
H96    H     0.06500   0.11700   0.54000   0.00000  Uiso   1.00
O97    O     0.49830   0.28460   0.39560   0.00000  Uiso   1.00
H98    H     0.41800   0.31200   0.41700   0.00000  Uiso   1.00
H99    H     0.62100   0.30500   0.39200   0.00000  Uiso   1.00
O100   O     0.24240   0.22980   0.50440   0.00000  Uiso   1.00
H101   H     0.21300   0.25600   0.53900   0.00000  Uiso   1.00
H102   H     0.12800   0.23200   0.47500   0.00000  Uiso   1.00
Pr103  Pr    0.58740   0.33323   0.96571   0.00000  Uiso   1.00
C104   C     0.40270   0.43450   0.18510   0.00000  Uiso   1.00
H105   H     0.25170   0.41150   0.17960   0.00000  Uiso   1.00
H106   H     0.40030   0.47390   0.22080   0.00000  Uiso   1.00
C107   C     0.57550   0.37810   0.21100   0.00000  Uiso   1.00
C108   C     0.55340   0.30670   0.18580   0.00000  Uiso   1.00
H109   H     0.42250   0.29440   0.15550   0.00000  Uiso   1.00
C110   C     0.71440   0.25190   0.20280   0.00000  Uiso   1.00
C111   C     0.68010   0.17770   0.16810   0.00000  Uiso   1.00
H112   H     0.75070   0.13960   0.20010   0.00000  Uiso   1.00
H113   H     0.51680   0.16710   0.16010   0.00000  Uiso   1.00
C114   C     0.90610   0.27040   0.24840   0.00000  Uiso   1.00
C115   C     0.09120   0.21700   0.27220   0.00000  Uiso   1.00
H116   H     0.11660   0.18470   0.23180   0.00000  Uiso   1.00
H117   H     0.23190   0.24480   0.28470   0.00000  Uiso   1.00
C118   C     0.80780   0.47080   0.28890   0.00000  Uiso   1.00
H119   H     0.97180   0.48060   0.29490   0.00000  Uiso   1.00
H120   H     0.73650   0.50800   0.25600   0.00000  Uiso   1.00
C121   C     0.76770   0.39590   0.25680   0.00000  Uiso   1.00
C122   C     0.92650   0.34220   0.27390   0.00000  Uiso   1.00
H123   H     0.05640   0.35470   0.30460   0.00000  Uiso   1.00
P124   P     0.69630   0.47963   0.37360   0.00000  Uiso   1.00
P125   P     0.80070   0.17429   0.08485   0.00000  Uiso   1.00
P126   P     0.46160   0.47331   0.10212   0.00000  Uiso   1.00
P127   P     0.03860   0.16096   0.34606   0.00000  Uiso   1.00
O128   O     0.43590   0.47210   0.35380   0.00000  Uiso   1.00
H129   H     0.37500   0.45400   0.38700   0.00000  Uiso   1.00
O130   O     0.78140   0.41580   0.42050   0.00000  Uiso   1.00
O131   O     0.75310   0.55350   0.40570   0.00000  Uiso   1.00
O132   O     0.73660   0.24040   0.04150   0.00000  Uiso   1.00
O133   O     0.71860   0.10150   0.05070   0.00000  Uiso   1.00
H134   H     0.72500   0.09200   0.00760   0.00000  Uiso   1.00
O135   O     0.06140   0.17180   0.10100   0.00000  Uiso   1.00
H136   H     0.11900   0.13000   0.10100   0.00000  Uiso   1.00
O137   O     0.72060   0.49290   0.11140   0.00000  Uiso   1.00
H138   H     0.72900   0.53860   0.11300   0.00000  Uiso   1.00
O139   O     0.42340   0.41660   0.04490   0.00000  Uiso   1.00
O140   O     0.33190   0.54420   0.09040   0.00000  Uiso   1.00
O141   O     0.90040   0.19990   0.39760   0.00000  Uiso   1.00
O142   O     0.26450   0.13450   0.38110   0.00000  Uiso   1.00
O143   O     0.90590   0.09360   0.31170   0.00000  Uiso   1.00
H144   H     0.83100   0.07600   0.34300   0.00000  Uiso   1.00
O145   O     0.92570   0.39020   0.03580   0.00000  Uiso   1.00
H146   H     0.90300   0.43200   0.05100   0.00000  Uiso   1.00
H147   H     0.06500   0.38300   0.04000   0.00000  Uiso   1.00
O148   O     0.49830   0.21540   0.89560   0.00000  Uiso   1.00
H149   H     0.41800   0.18800   0.91700   0.00000  Uiso   1.00
H150   H     0.62100   0.19500   0.89200   0.00000  Uiso   1.00
O151   O     0.24240   0.27020   0.00440   0.00000  Uiso   1.00
H152   H     0.21300   0.24400   0.03900   0.00000  Uiso   1.00
H153   H     0.12800   0.26800   0.97500   0.00000  Uiso   1.00
Pr154  Pr    0.41260   0.83323   0.53429   0.00000  Uiso   1.00
C155   C     0.59730   0.93450   0.31490   0.00000  Uiso   1.00
H156   H     0.74830   0.91150   0.32040   0.00000  Uiso   1.00
H157   H     0.59970   0.97390   0.27920   0.00000  Uiso   1.00
C158   C     0.42450   0.87810   0.28900   0.00000  Uiso   1.00
C159   C     0.44660   0.80670   0.31420   0.00000  Uiso   1.00
H160   H     0.57750   0.79440   0.34450   0.00000  Uiso   1.00
C161   C     0.28560   0.75190   0.29720   0.00000  Uiso   1.00
C162   C     0.31990   0.67770   0.33190   0.00000  Uiso   1.00
H163   H     0.24930   0.63960   0.29990   0.00000  Uiso   1.00
H164   H     0.48320   0.66710   0.33990   0.00000  Uiso   1.00
C165   C     0.09390   0.77040   0.25160   0.00000  Uiso   1.00
C166   C     0.90880   0.71700   0.22780   0.00000  Uiso   1.00
H167   H     0.88340   0.68470   0.26820   0.00000  Uiso   1.00
H168   H     0.76810   0.74480   0.21530   0.00000  Uiso   1.00
C169   C     0.19220   0.97080   0.21110   0.00000  Uiso   1.00
H170   H     0.02820   0.98060   0.20510   0.00000  Uiso   1.00
H171   H     0.26350   0.00800   0.24400   0.00000  Uiso   1.00
C172   C     0.23230   0.89590   0.24320   0.00000  Uiso   1.00
C173   C     0.07350   0.84220   0.22610   0.00000  Uiso   1.00
H174   H     0.94360   0.85470   0.19540   0.00000  Uiso   1.00
P175   P     0.30370   0.97963   0.12640   0.00000  Uiso   1.00
P176   P     0.19930   0.67429   0.41515   0.00000  Uiso   1.00
P177   P     0.53840   0.97331   0.39788   0.00000  Uiso   1.00
P178   P     0.96140   0.66096   0.15394   0.00000  Uiso   1.00
O179   O     0.56410   0.97210   0.14620   0.00000  Uiso   1.00
H180   H     0.62500   0.95400   0.11300   0.00000  Uiso   1.00
O181   O     0.21860   0.91580   0.07950   0.00000  Uiso   1.00
O182   O     0.24690   0.05350   0.09430   0.00000  Uiso   1.00
O183   O     0.26340   0.74040   0.45850   0.00000  Uiso   1.00
O184   O     0.28140   0.60150   0.44930   0.00000  Uiso   1.00
H185   H     0.27500   0.59200   0.49240   0.00000  Uiso   1.00
O186   O     0.93860   0.67180   0.39900   0.00000  Uiso   1.00
H187   H     0.88100   0.63000   0.39900   0.00000  Uiso   1.00
O188   O     0.27940   0.99290   0.38860   0.00000  Uiso   1.00
H189   H     0.27100   0.03860   0.38700   0.00000  Uiso   1.00
O190   O     0.57660   0.91660   0.45510   0.00000  Uiso   1.00
O191   O     0.66810   0.04420   0.40960   0.00000  Uiso   1.00
O192   O     0.09960   0.69990   0.10240   0.00000  Uiso   1.00
O193   O     0.73550   0.63450   0.11890   0.00000  Uiso   1.00
O194   O     0.09410   0.59360   0.18830   0.00000  Uiso   1.00
H195   H     0.16900   0.57600   0.15700   0.00000  Uiso   1.00
O196   O     0.07430   0.89020   0.46420   0.00000  Uiso   1.00
H197   H     0.09700   0.93200   0.44900   0.00000  Uiso   1.00
H198   H     0.93500   0.88300   0.46000   0.00000  Uiso   1.00
O199   O     0.50170   0.71540   0.60440   0.00000  Uiso   1.00
H200   H     0.58200   0.68800   0.58300   0.00000  Uiso   1.00
H201   H     0.37900   0.69500   0.60800   0.00000  Uiso   1.00
O202   O     0.75760   0.77020   0.49560   0.00000  Uiso   1.00
H203   H     0.78700   0.74400   0.46100   0.00000  Uiso   1.00
H204   H     0.87200   0.76800   0.52500   0.00000  Uiso   1.00
loop_
_geom_bond_atom_site_label_1
_geom_bond_atom_site_label_2
_geom_bond_distance
_geom_bond_site_symmetry_2
_ccdc_geom_bond_type
Pr1    O30     2.342   1_554 S
Pr1    O37     2.412   1_554 S
Pr1    O43     2.529   1_554 S
Pr1    O46     2.559   .     S
Pr1    O49     2.528   1_554 S
Pr1    O140    2.545   .     S
Pr1    O192    2.448   .     S
Pr1    O193    2.454   .     S
C2     H3      0.990   .     S
C2     H4      0.989   .     S
C2     C5      1.505   .     S
C2     P24     1.792   .     S
C5     C6      1.391   .     S
C5     C19     1.407   .     S
C6     H7      0.950   .     S
C6     C8      1.403   .     S
C8     C9      1.512   .     S
C8     C12     1.405   .     S
C9     H10     0.990   .     S
C9     H11     0.990   .     S
C9     P23     1.799   .     S
C12    C13     1.509   1_455 S
C12    C20     1.399   .     S
C13    C12     1.509   1_655 S
C13    H14     0.990   .     S
C13    H15     0.990   .     S
C13    P25     1.787   .     S
C16    H17     0.990   .     S
C16    H18     0.990   .     S
C16    P22     1.805   .     S
C16    C19     1.507   .     S
C19    C20     1.380   .     S
C20    H21     0.950   1_455 S
H21    C20     0.950   1_655 S
P22    O26     1.567   .     S
P22    O28     1.523   .     S
P22    O29     1.505   .     S
P23    O30     1.490   .     S
P23    O31     1.538   .     S
P23    O33     1.555   1_455 S
P24    O35     1.578   .     S
P24    O38     1.514   .     S
P24    O37     1.501   .     S
P25    O39     1.516   1_655 S
P25    O40     1.521   .     S
P25    O41     1.570   1_655 S
O26    H27     0.826   .     S
O30    Pr1     2.342   1_556 S
O31    H32     0.840   .     S
O33    P23     1.555   1_655 S
O33    H34     0.837   .     S
O35    H36     0.837   .     S
O37    Pr1     2.412   1_556 S
O38    Pr103   2.545   .     S
O39    P25     1.516   1_455 S
O39    Pr154   2.448   .     S
O40    Pr154   2.454   .     S
O41    P25     1.570   1_455 S
O41    H42     0.841   .     S
O43    Pr1     2.529   1_556 S
O43    H44     0.832   .     S
O43    H45     0.837   1_455 S
H45    O43     0.837   1_655 S
O46    H47     0.826   .     S
O46    H48     0.830   .     S
O49    Pr1     2.528   1_556 S
O49    H50     0.844   .     S
O49    H51     0.839   1_556 S
H51    O49     0.839   1_554 S
Pr52   O81     2.342   .     S
Pr52   O88     2.412   .     S
Pr52   O94     2.529   .     S
Pr52   O97     2.559   .     S
Pr52   O100    2.528   .     S
Pr52   O191    2.545   .     S
Pr52   O141    2.448   .     S
Pr52   O142    2.454   .     S
C53    H54     0.990   .     S
C53    H55     0.989   .     S
C53    C56     1.505   .     S
C53    P75     1.792   .     S
C56    C57     1.391   .     S
C56    C70     1.407   .     S
C57    H58     0.950   .     S
C57    C59     1.403   .     S
C59    C60     1.512   .     S
C59    C63     1.405   .     S
C60    H61     0.990   .     S
C60    H62     0.990   .     S
C60    P74     1.799   .     S
C63    C64     1.509   1_655 S
C63    C71     1.399   .     S
C64    C63     1.509   1_455 S
C64    H65     0.990   .     S
C64    H66     0.990   .     S
C64    P76     1.787   .     S
C67    H68     0.990   .     S
C67    H69     0.990   1_545 S
C67    P73     1.805   .     S
C67    C70     1.507   .     S
H69    C67     0.990   1_565 S
C70    C71     1.380   .     S
C71    H72     0.950   1_655 S
H72    C71     0.950   1_455 S
P73    O77     1.567   .     S
P73    O79     1.523   .     S
P73    O80     1.505   1_545 S
P74    O81     1.490   .     S
P74    O82     1.538   .     S
P74    O84     1.555   1_655 S
P75    O86     1.578   .     S
P75    O89     1.514   1_545 S
P75    O88     1.501   .     S
P76    O90     1.516   1_455 S
P76    O91     1.521   .     S
P76    O92     1.570   1_455 S
O77    H78     0.826   .     S
O80    P73     1.505   1_565 S
O82    H83     0.840   .     S
O84    P74     1.555   1_455 S
O84    H85     0.837   .     S
O86    H87     0.837   1_545 S
H87    O86     0.837   1_565 S
O89    P75     1.514   1_565 S
O89    Pr154   2.545   .     S
O90    P76     1.516   1_655 S
O90    Pr103   2.448   .     S
O91    Pr103   2.454   .     S
O92    P76     1.570   1_655 S
O92    H93     0.841   .     S
O94    H95     0.832   .     S
O94    H96     0.837   1_655 S
H96    O94     0.837   1_455 S
O97    H98     0.826   .     S
O97    H99     0.830   .     S
O100   H101    0.844   .     S
O100   H102    0.839   .     S
Pr103  O132    2.342   1_556 S
Pr103  O139    2.412   1_556 S
Pr103  O145    2.529   1_556 S
Pr103  O148    2.559   .     S
Pr103  O151    2.528   1_556 S
C104   H105    0.990   .     S
C104   H106    0.989   .     S
C104   C107    1.505   .     S
C104   P126    1.792   .     S
C107   C108    1.391   .     S
C107   C121    1.407   .     S
C108   H109    0.950   .     S
C108   C110    1.403   .     S
C110   C111    1.512   .     S
C110   C114    1.405   .     S
C111   H112    0.990   .     S
C111   H113    0.990   .     S
C111   P125    1.799   .     S
C114   C115    1.509   1_655 S
C114   C122    1.399   .     S
C115   C114    1.509   1_455 S
C115   H116    0.990   .     S
C115   H117    0.990   .     S
C115   P127    1.787   .     S
C118   H119    0.990   .     S
C118   H120    0.990   .     S
C118   P124    1.805   .     S
C118   C121    1.507   .     S
C121   C122    1.380   .     S
C122   H123    0.950   1_655 S
H123   C122    0.950   1_455 S
P124   O128    1.567   .     S
P124   O130    1.523   .     S
P124   O131    1.505   .     S
P125   O132    1.490   .     S
P125   O133    1.538   .     S
P125   O135    1.555   1_655 S
P126   O137    1.578   .     S
P126   O140    1.514   .     S
P126   O139    1.501   .     S
P127   O141    1.516   1_455 S
P127   O142    1.521   .     S
P127   O143    1.570   1_455 S
O128   H129    0.826   .     S
O132   Pr103   2.342   1_554 S
O133   H134    0.840   .     S
O135   P125    1.555   1_455 S
O135   H136    0.837   .     S
O137   H138    0.837   .     S
O139   Pr103   2.412   1_554 S
O141   P127    1.516   1_655 S
O143   P127    1.570   1_655 S
O143   H144    0.841   .     S
O145   Pr103   2.529   1_554 S
O145   H146    0.832   .     S
O145   H147    0.837   1_655 S
H147   O145    0.837   1_455 S
O148   H149    0.826   .     S
O148   H150    0.830   .     S
O151   Pr103   2.528   1_554 S
O151   H152    0.844   .     S
O151   H153    0.839   1_554 S
H153   O151    0.839   1_556 S
Pr154  O183    2.342   .     S
Pr154  O190    2.412   .     S
Pr154  O196    2.529   .     S
Pr154  O199    2.559   .     S
Pr154  O202    2.528   .     S
C155   H156    0.990   .     S
C155   H157    0.989   .     S
C155   C158    1.505   .     S
C155   P177    1.792   .     S
C158   C159    1.391   .     S
C158   C172    1.407   .     S
C159   H160    0.950   .     S
C159   C161    1.403   .     S
C161   C162    1.512   .     S
C161   C165    1.405   .     S
C162   H163    0.990   .     S
C162   H164    0.990   .     S
C162   P176    1.799   .     S
C165   C166    1.509   1_455 S
C165   C173    1.399   .     S
C166   C165    1.509   1_655 S
C166   H167    0.990   .     S
C166   H168    0.990   .     S
C166   P178    1.787   .     S
C169   H170    0.990   .     S
C169   H171    0.990   1_565 S
C169   P175    1.805   .     S
C169   C172    1.507   .     S
H171   C169    0.990   1_545 S
C172   C173    1.380   .     S
C173   H174    0.950   1_455 S
H174   C173    0.950   1_655 S
P175   O179    1.567   .     S
P175   O181    1.523   .     S
P175   O182    1.505   1_565 S
P176   O183    1.490   .     S
P176   O184    1.538   .     S
P176   O186    1.555   1_455 S
P177   O188    1.578   .     S
P177   O191    1.514   1_565 S
P177   O190    1.501   .     S
P178   O192    1.516   1_655 S
P178   O193    1.521   .     S
P178   O194    1.570   1_655 S
O179   H180    0.826   .     S
O182   P175    1.505   1_545 S
O184   H185    0.840   .     S
O186   P176    1.555   1_655 S
O186   H187    0.837   .     S
O188   H189    0.837   1_565 S
H189   O188    0.837   1_545 S
O191   P177    1.514   1_545 S
O192   P178    1.516   1_455 S
O194   P178    1.570   1_455 S
O194   H195    0.841   .     S
O196   H197    0.832   .     S
O196   H198    0.837   1_455 S
H198   O196    0.837   1_655 S
O199   H200    0.826   .     S
O199   H201    0.830   .     S
O202   H203    0.844   .     S
O202   H204    0.839   .     S
