data_JESVIQ_FSR
_audit_creation_date              2024-06-11
_audit_creation_method            'Materials Studio'
_symmetry_space_group_name_H-M    'P1'
_symmetry_Int_Tables_number       1
_symmetry_cell_setting            triclinic
loop_
_symmetry_equiv_pos_as_xyz
  x,y,z
_cell_length_a                    31.9646
_cell_length_b                    13.0737
_cell_length_c                    8.7611
_cell_angle_alpha                 90.0000
_cell_angle_beta                  94.3850
_cell_angle_gamma                 90.0000
loop_
_atom_site_label
_atom_site_type_symbol
_atom_site_fract_x
_atom_site_fract_y
_atom_site_fract_z
_atom_site_U_iso_or_equiv
_atom_site_adp_type
_atom_site_occupancy
C1     C     0.57249   0.56740   0.57180   0.00000  Uiso   1.00
C2     C     0.60898   0.60440   0.48790   0.00000  Uiso   1.00
H3     H     0.61370   0.55810   0.40450   0.00000  Uiso   1.00
H4     H     0.60280   0.67160   0.44510   0.00000  Uiso   1.00
C5     C     0.68152   0.65040   0.56230   0.00000  Uiso   1.00
C6     C     0.71274   0.61020   0.82290   0.00000  Uiso   1.00
C7     C     0.75207   0.61320   0.92480   0.00000  Uiso   1.00
C8     C     0.74712   0.61410   0.08350   0.00000  Uiso   1.00
H9     H     0.72040   0.61160   0.11820   0.00000  Uiso   1.00
C10    C     0.78122   0.61840   0.18590   0.00000  Uiso   1.00
H11    H     0.77770   0.61920   0.29020   0.00000  Uiso   1.00
C12    C     0.82153   0.62180   0.13510   0.00000  Uiso   1.00
C13    C     0.82715   0.61750   0.97800   0.00000  Uiso   1.00
C14    C     0.79110   0.61270   0.87210   0.00000  Uiso   1.00
H15    H     0.79420   0.60930   0.76750   0.00000  Uiso   1.00
C16    C     0.85810   0.62960   0.24020   0.00000  Uiso   1.00
H17    H     0.85510   0.63290   0.34490   0.00000  Uiso   1.00
C18    C     0.89650   0.63230   0.18820   0.00000  Uiso   1.00
H19    H     0.91990   0.63810   0.25750   0.00000  Uiso   1.00
C20    C     0.90189   0.62650   0.03050   0.00000  Uiso   1.00
H21    H     0.92880   0.62790   0.99750   0.00000  Uiso   1.00
C22    C     0.86793   0.61860   0.92410   0.00000  Uiso   1.00
H23    H     0.87160   0.61410   0.82000   0.00000  Uiso   1.00
N24    N     0.64621   0.60940   0.59270   0.00000  Uiso   1.00
H25    H     0.64390   0.58700   0.68200   0.00000  Uiso   1.00
N26    N     0.71441   0.64540   0.67590   0.00000  Uiso   1.00
H27    H     0.73670   0.67600   0.65400   0.00000  Uiso   1.00
O28    O     0.54013   0.53430   0.49290   0.00000  Uiso   1.00
O29    O     0.57386   0.57210   0.71430   0.00000  Uiso   1.00
O30    O     0.67985   0.57940   0.87000   0.00000  Uiso   1.00
O31    O     0.49330   0.30810   0.12870   0.00000  Uiso   1.00
O32    O     0.54005   0.65030   0.18980   0.00000  Uiso   1.00
H33    H     0.52320   0.69630   0.14910   0.00000  Uiso   1.00
H34    H     0.55780   0.64330   0.27680   0.00000  Uiso   1.00
S35    S     0.68982   0.71008   0.39724   0.00000  Uiso   1.00
C36    C     0.07249   0.06740   0.57180   0.00000  Uiso   1.00
C37    C     0.10898   0.10440   0.48790   0.00000  Uiso   1.00
H38    H     0.11370   0.05810   0.40450   0.00000  Uiso   1.00
H39    H     0.10280   0.17160   0.44510   0.00000  Uiso   1.00
C40    C     0.18152   0.15040   0.56230   0.00000  Uiso   1.00
C41    C     0.21274   0.11020   0.82290   0.00000  Uiso   1.00
C42    C     0.25207   0.11320   0.92480   0.00000  Uiso   1.00
C43    C     0.24712   0.11410   0.08350   0.00000  Uiso   1.00
H44    H     0.22040   0.11160   0.11820   0.00000  Uiso   1.00
C45    C     0.28122   0.11840   0.18590   0.00000  Uiso   1.00
H46    H     0.27770   0.11920   0.29020   0.00000  Uiso   1.00
C47    C     0.32153   0.12180   0.13510   0.00000  Uiso   1.00
C48    C     0.32715   0.11750   0.97800   0.00000  Uiso   1.00
C49    C     0.29110   0.11270   0.87210   0.00000  Uiso   1.00
H50    H     0.29420   0.10930   0.76750   0.00000  Uiso   1.00
C51    C     0.35810   0.12960   0.24020   0.00000  Uiso   1.00
H52    H     0.35510   0.13290   0.34490   0.00000  Uiso   1.00
C53    C     0.39650   0.13230   0.18820   0.00000  Uiso   1.00
H54    H     0.41990   0.13810   0.25750   0.00000  Uiso   1.00
C55    C     0.40189   0.12650   0.03050   0.00000  Uiso   1.00
H56    H     0.42880   0.12790   0.99750   0.00000  Uiso   1.00
C57    C     0.36793   0.11860   0.92410   0.00000  Uiso   1.00
H58    H     0.37160   0.11410   0.82000   0.00000  Uiso   1.00
N59    N     0.14621   0.10940   0.59270   0.00000  Uiso   1.00
H60    H     0.14390   0.08700   0.68200   0.00000  Uiso   1.00
N61    N     0.21441   0.14540   0.67590   0.00000  Uiso   1.00
H62    H     0.23670   0.17600   0.65400   0.00000  Uiso   1.00
O63    O     0.04013   0.03430   0.49290   0.00000  Uiso   1.00
O64    O     0.07386   0.07210   0.71430   0.00000  Uiso   1.00
O65    O     0.17985   0.07940   0.87000   0.00000  Uiso   1.00
O66    O    -0.00670  -0.19190   0.12870   0.00000  Uiso   1.00
O67    O     0.04005   0.15030   0.18980   0.00000  Uiso   1.00
H68    H     0.02320   0.19630   0.14910   0.00000  Uiso   1.00
H69    H     0.05780   0.14330   0.27680   0.00000  Uiso   1.00
S70    S     0.18982   0.21008   0.39724   0.00000  Uiso   1.00
C71    C     0.42751   0.56740   0.92820   0.00000  Uiso   1.00
C72    C     0.39102   0.60440   0.01210   0.00000  Uiso   1.00
H73    H     0.38630   0.55810   0.09550   0.00000  Uiso   1.00
H74    H     0.39720   0.67160   0.05490   0.00000  Uiso   1.00
C75    C     0.31848   0.65040   0.93770   0.00000  Uiso   1.00
C76    C     0.28726   0.61020   0.67710   0.00000  Uiso   1.00
C77    C     0.24793   0.61320   0.57520   0.00000  Uiso   1.00
C78    C     0.25288   0.61410   0.41650   0.00000  Uiso   1.00
H79    H     0.27960   0.61160   0.38180   0.00000  Uiso   1.00
C80    C     0.21878   0.61840   0.31410   0.00000  Uiso   1.00
H81    H     0.22230   0.61920   0.20980   0.00000  Uiso   1.00
C82    C     0.17847   0.62180   0.36490   0.00000  Uiso   1.00
C83    C     0.17285   0.61750   0.52200   0.00000  Uiso   1.00
C84    C     0.20890   0.61270   0.62790   0.00000  Uiso   1.00
H85    H     0.20580   0.60930   0.73250   0.00000  Uiso   1.00
C86    C     0.14190   0.62960   0.25980   0.00000  Uiso   1.00
H87    H     0.14490   0.63290   0.15510   0.00000  Uiso   1.00
C88    C     0.10350   0.63230   0.31180   0.00000  Uiso   1.00
H89    H     0.08010   0.63810   0.24250   0.00000  Uiso   1.00
C90    C     0.09811   0.62650   0.46950   0.00000  Uiso   1.00
H91    H     0.07120   0.62790   0.50250   0.00000  Uiso   1.00
C92    C     0.13207   0.61860   0.57590   0.00000  Uiso   1.00
H93    H     0.12840   0.61410   0.68000   0.00000  Uiso   1.00
N94    N     0.35379   0.60940   0.90730   0.00000  Uiso   1.00
H95    H     0.35610   0.58700   0.81800   0.00000  Uiso   1.00
N96    N     0.28559   0.64540   0.82410   0.00000  Uiso   1.00
H97    H     0.26330   0.67600   0.84600   0.00000  Uiso   1.00
O98    O     0.45987   0.53430   0.00710   0.00000  Uiso   1.00
O99    O     0.42614   0.57210   0.78570   0.00000  Uiso   1.00
O100   O     0.32015   0.57940   0.63000   0.00000  Uiso   1.00
O101   O     0.50670   0.30810   0.37130   0.00000  Uiso   1.00
O102   O     0.45995   0.65030   0.31020   0.00000  Uiso   1.00
H103   H     0.47680   0.69630   0.35090   0.00000  Uiso   1.00
H104   H     0.44220   0.64330   0.22320   0.00000  Uiso   1.00
S105   S     0.31018   0.71008   0.10276   0.00000  Uiso   1.00
C106   C    -0.07249   0.06740   0.92820   0.00000  Uiso   1.00
C107   C    -0.10898   0.10440   0.01210   0.00000  Uiso   1.00
H108   H    -0.11370   0.05810   0.09550   0.00000  Uiso   1.00
H109   H    -0.10280   0.17160   0.05490   0.00000  Uiso   1.00
C110   C    -0.18152   0.15040   0.93770   0.00000  Uiso   1.00
C111   C    -0.21274   0.11020   0.67710   0.00000  Uiso   1.00
C112   C    -0.25207   0.11320   0.57520   0.00000  Uiso   1.00
C113   C    -0.24712   0.11410   0.41650   0.00000  Uiso   1.00
H114   H    -0.22040   0.11160   0.38180   0.00000  Uiso   1.00
C115   C    -0.28122   0.11840   0.31410   0.00000  Uiso   1.00
H116   H    -0.27770   0.11920   0.20980   0.00000  Uiso   1.00
C117   C    -0.32153   0.12180   0.36490   0.00000  Uiso   1.00
C118   C    -0.32715   0.11750   0.52200   0.00000  Uiso   1.00
C119   C    -0.29110   0.11270   0.62790   0.00000  Uiso   1.00
H120   H    -0.29420   0.10930   0.73250   0.00000  Uiso   1.00
C121   C    -0.35810   0.12960   0.25980   0.00000  Uiso   1.00
H122   H    -0.35510   0.13290   0.15510   0.00000  Uiso   1.00
C123   C    -0.39650   0.13230   0.31180   0.00000  Uiso   1.00
H124   H    -0.41990   0.13810   0.24250   0.00000  Uiso   1.00
C125   C    -0.40189   0.12650   0.46950   0.00000  Uiso   1.00
H126   H    -0.42880   0.12790   0.50250   0.00000  Uiso   1.00
C127   C    -0.36793   0.11860   0.57590   0.00000  Uiso   1.00
H128   H    -0.37160   0.11410   0.68000   0.00000  Uiso   1.00
N129   N    -0.14621   0.10940   0.90730   0.00000  Uiso   1.00
H130   H    -0.14390   0.08700   0.81800   0.00000  Uiso   1.00
N131   N    -0.21441   0.14540   0.82410   0.00000  Uiso   1.00
H132   H    -0.23670   0.17600   0.84600   0.00000  Uiso   1.00
O133   O    -0.04013   0.03430   0.00710   0.00000  Uiso   1.00
O134   O    -0.07386   0.07210   0.78570   0.00000  Uiso   1.00
O135   O    -0.17985   0.07940   0.63000   0.00000  Uiso   1.00
O136   O     0.00670  -0.19190   0.37130   0.00000  Uiso   1.00
O137   O    -0.04005   0.15030   0.31020   0.00000  Uiso   1.00
H138   H    -0.02320   0.19630   0.35090   0.00000  Uiso   1.00
H139   H    -0.05780   0.14330   0.22320   0.00000  Uiso   1.00
S140   S    -0.18982   0.21008   0.10276   0.00000  Uiso   1.00
C141   C     0.42751   0.43260   0.42820   0.00000  Uiso   1.00
C142   C     0.39102   0.39560   0.51210   0.00000  Uiso   1.00
H143   H     0.38630   0.44190   0.59550   0.00000  Uiso   1.00
H144   H     0.39720   0.32840   0.55490   0.00000  Uiso   1.00
C145   C     0.31848   0.34960   0.43770   0.00000  Uiso   1.00
C146   C     0.28726   0.38980   0.17710   0.00000  Uiso   1.00
C147   C     0.24793   0.38680   0.07520   0.00000  Uiso   1.00
C148   C     0.25288   0.38590   0.91650   0.00000  Uiso   1.00
H149   H     0.27960   0.38840   0.88180   0.00000  Uiso   1.00
C150   C     0.21878   0.38160   0.81410   0.00000  Uiso   1.00
H151   H     0.22230   0.38080   0.70980   0.00000  Uiso   1.00
C152   C     0.17847   0.37820   0.86490   0.00000  Uiso   1.00
C153   C     0.17285   0.38250   0.02200   0.00000  Uiso   1.00
C154   C     0.20890   0.38730   0.12790   0.00000  Uiso   1.00
H155   H     0.20580   0.39070   0.23250   0.00000  Uiso   1.00
C156   C     0.14190   0.37040   0.75980   0.00000  Uiso   1.00
H157   H     0.14490   0.36710   0.65510   0.00000  Uiso   1.00
C158   C     0.10350   0.36770   0.81180   0.00000  Uiso   1.00
H159   H     0.08010   0.36190   0.74250   0.00000  Uiso   1.00
C160   C     0.09811   0.37350   0.96950   0.00000  Uiso   1.00
H161   H     0.07120   0.37210   0.00250   0.00000  Uiso   1.00
C162   C     0.13207   0.38140   0.07590   0.00000  Uiso   1.00
H163   H     0.12840   0.38590   0.18000   0.00000  Uiso   1.00
N164   N     0.35379   0.39060   0.40730   0.00000  Uiso   1.00
H165   H     0.35610   0.41300   0.31800   0.00000  Uiso   1.00
N166   N     0.28559   0.35460   0.32410   0.00000  Uiso   1.00
H167   H     0.26330   0.32400   0.34600   0.00000  Uiso   1.00
O168   O     0.45987   0.46570   0.50710   0.00000  Uiso   1.00
O169   O     0.42614   0.42790   0.28570   0.00000  Uiso   1.00
O170   O     0.32015   0.42060   0.13000   0.00000  Uiso   1.00
O171   O     0.50670   0.69190   0.87130   0.00000  Uiso   1.00
O172   O     0.45995   0.34970   0.81020   0.00000  Uiso   1.00
H173   H     0.47680   0.30370   0.85090   0.00000  Uiso   1.00
H174   H     0.44220   0.35670   0.72320   0.00000  Uiso   1.00
S175   S     0.31018   0.28992   0.60276   0.00000  Uiso   1.00
C176   C    -0.07249  -0.06740   0.42820   0.00000  Uiso   1.00
C177   C    -0.10898  -0.10440   0.51210   0.00000  Uiso   1.00
H178   H    -0.11370  -0.05810   0.59550   0.00000  Uiso   1.00
H179   H    -0.10280  -0.17160   0.55490   0.00000  Uiso   1.00
C180   C    -0.18152  -0.15040   0.43770   0.00000  Uiso   1.00
C181   C    -0.21274  -0.11020   0.17710   0.00000  Uiso   1.00
C182   C    -0.25207  -0.11320   0.07520   0.00000  Uiso   1.00
C183   C    -0.24712  -0.11410   0.91650   0.00000  Uiso   1.00
H184   H    -0.22040  -0.11160   0.88180   0.00000  Uiso   1.00
C185   C    -0.28122  -0.11840   0.81410   0.00000  Uiso   1.00
H186   H    -0.27770  -0.11920   0.70980   0.00000  Uiso   1.00
C187   C    -0.32153  -0.12180   0.86490   0.00000  Uiso   1.00
C188   C    -0.32715  -0.11750   0.02200   0.00000  Uiso   1.00
C189   C    -0.29110  -0.11270   0.12790   0.00000  Uiso   1.00
H190   H    -0.29420  -0.10930   0.23250   0.00000  Uiso   1.00
C191   C    -0.35810  -0.12960   0.75980   0.00000  Uiso   1.00
H192   H    -0.35510  -0.13290   0.65510   0.00000  Uiso   1.00
C193   C    -0.39650  -0.13230   0.81180   0.00000  Uiso   1.00
H194   H    -0.41990  -0.13810   0.74250   0.00000  Uiso   1.00
C195   C    -0.40189  -0.12650   0.96950   0.00000  Uiso   1.00
H196   H    -0.42880  -0.12790   0.00250   0.00000  Uiso   1.00
C197   C    -0.36793  -0.11860   0.07590   0.00000  Uiso   1.00
H198   H    -0.37160  -0.11410   0.18000   0.00000  Uiso   1.00
N199   N    -0.14621  -0.10940   0.40730   0.00000  Uiso   1.00
H200   H    -0.14390  -0.08700   0.31800   0.00000  Uiso   1.00
N201   N    -0.21441  -0.14540   0.32410   0.00000  Uiso   1.00
H202   H    -0.23670  -0.17600   0.34600   0.00000  Uiso   1.00
O203   O    -0.04013  -0.03430   0.50710   0.00000  Uiso   1.00
O204   O    -0.07386  -0.07210   0.28570   0.00000  Uiso   1.00
O205   O    -0.17985  -0.07940   0.13000   0.00000  Uiso   1.00
O206   O     0.00670   0.19190   0.87130   0.00000  Uiso   1.00
O207   O    -0.04005  -0.15030   0.81020   0.00000  Uiso   1.00
H208   H    -0.02320  -0.19630   0.85090   0.00000  Uiso   1.00
H209   H    -0.05780  -0.14330   0.72320   0.00000  Uiso   1.00
S210   S    -0.18982  -0.21008   0.60276   0.00000  Uiso   1.00
C211   C     0.57249   0.43260   0.07180   0.00000  Uiso   1.00
C212   C     0.60898   0.39560   0.98790   0.00000  Uiso   1.00
H213   H     0.61370   0.44190   0.90450   0.00000  Uiso   1.00
H214   H     0.60280   0.32840   0.94510   0.00000  Uiso   1.00
C215   C     0.68152   0.34960   0.06230   0.00000  Uiso   1.00
C216   C     0.71274   0.38980   0.32290   0.00000  Uiso   1.00
C217   C     0.75207   0.38680   0.42480   0.00000  Uiso   1.00
C218   C     0.74712   0.38590   0.58350   0.00000  Uiso   1.00
H219   H     0.72040   0.38840   0.61820   0.00000  Uiso   1.00
C220   C     0.78122   0.38160   0.68590   0.00000  Uiso   1.00
H221   H     0.77770   0.38080   0.79020   0.00000  Uiso   1.00
C222   C     0.82153   0.37820   0.63510   0.00000  Uiso   1.00
C223   C     0.82715   0.38250   0.47800   0.00000  Uiso   1.00
C224   C     0.79110   0.38730   0.37210   0.00000  Uiso   1.00
H225   H     0.79420   0.39070   0.26750   0.00000  Uiso   1.00
C226   C     0.85810   0.37040   0.74020   0.00000  Uiso   1.00
H227   H     0.85510   0.36710   0.84490   0.00000  Uiso   1.00
C228   C     0.89650   0.36770   0.68820   0.00000  Uiso   1.00
H229   H     0.91990   0.36190   0.75750   0.00000  Uiso   1.00
C230   C     0.90189   0.37350   0.53050   0.00000  Uiso   1.00
H231   H     0.92880   0.37210   0.49750   0.00000  Uiso   1.00
C232   C     0.86793   0.38140   0.42410   0.00000  Uiso   1.00
H233   H     0.87160   0.38590   0.32000   0.00000  Uiso   1.00
N234   N     0.64621   0.39060   0.09270   0.00000  Uiso   1.00
H235   H     0.64390   0.41300   0.18200   0.00000  Uiso   1.00
N236   N     0.71441   0.35460   0.17590   0.00000  Uiso   1.00
H237   H     0.73670   0.32400   0.15400   0.00000  Uiso   1.00
O238   O     0.54013   0.46570   0.99290   0.00000  Uiso   1.00
O239   O     0.57386   0.42790   0.21430   0.00000  Uiso   1.00
O240   O     0.67985   0.42060   0.37000   0.00000  Uiso   1.00
O241   O     0.49330   0.69190   0.62870   0.00000  Uiso   1.00
O242   O     0.54005   0.34970   0.68980   0.00000  Uiso   1.00
H243   H     0.52320   0.30370   0.64910   0.00000  Uiso   1.00
H244   H     0.55780   0.35670   0.77680   0.00000  Uiso   1.00
S245   S     0.68982   0.28992   0.89724   0.00000  Uiso   1.00
C246   C     0.07249  -0.06740   0.07180   0.00000  Uiso   1.00
C247   C     0.10898  -0.10440   0.98790   0.00000  Uiso   1.00
H248   H     0.11370  -0.05810   0.90450   0.00000  Uiso   1.00
H249   H     0.10280  -0.17160   0.94510   0.00000  Uiso   1.00
C250   C     0.18152  -0.15040   0.06230   0.00000  Uiso   1.00
C251   C     0.21274  -0.11020   0.32290   0.00000  Uiso   1.00
C252   C     0.25207  -0.11320   0.42480   0.00000  Uiso   1.00
C253   C     0.24712  -0.11410   0.58350   0.00000  Uiso   1.00
H254   H     0.22040  -0.11160   0.61820   0.00000  Uiso   1.00
C255   C     0.28122  -0.11840   0.68590   0.00000  Uiso   1.00
H256   H     0.27770  -0.11920   0.79020   0.00000  Uiso   1.00
C257   C     0.32153  -0.12180   0.63510   0.00000  Uiso   1.00
C258   C     0.32715  -0.11750   0.47800   0.00000  Uiso   1.00
C259   C     0.29110  -0.11270   0.37210   0.00000  Uiso   1.00
H260   H     0.29420  -0.10930   0.26750   0.00000  Uiso   1.00
C261   C     0.35810  -0.12960   0.74020   0.00000  Uiso   1.00
H262   H     0.35510  -0.13290   0.84490   0.00000  Uiso   1.00
C263   C     0.39650  -0.13230   0.68820   0.00000  Uiso   1.00
H264   H     0.41990  -0.13810   0.75750   0.00000  Uiso   1.00
C265   C     0.40189  -0.12650   0.53050   0.00000  Uiso   1.00
H266   H     0.42880  -0.12790   0.49750   0.00000  Uiso   1.00
C267   C     0.36793  -0.11860   0.42410   0.00000  Uiso   1.00
H268   H     0.37160  -0.11410   0.32000   0.00000  Uiso   1.00
N269   N     0.14621  -0.10940   0.09270   0.00000  Uiso   1.00
H270   H     0.14390  -0.08700   0.18200   0.00000  Uiso   1.00
N271   N     0.21441  -0.14540   0.17590   0.00000  Uiso   1.00
H272   H     0.23670  -0.17600   0.15400   0.00000  Uiso   1.00
O273   O     0.04013  -0.03430   0.99290   0.00000  Uiso   1.00
O274   O     0.07386  -0.07210   0.21430   0.00000  Uiso   1.00
O275   O     0.17985  -0.07940   0.37000   0.00000  Uiso   1.00
O276   O    -0.00670   0.19190   0.62870   0.00000  Uiso   1.00
O277   O     0.04005  -0.15030   0.68980   0.00000  Uiso   1.00
H278   H     0.02320  -0.19630   0.64910   0.00000  Uiso   1.00
H279   H     0.05780  -0.14330   0.77680   0.00000  Uiso   1.00
S280   S     0.18982  -0.21008   0.89724   0.00000  Uiso   1.00
N281   N     0.50000   0.25740   0.25000   0.00000  Uiso   1.00
O282   O     0.50000   0.16370   0.25000   0.00000  Uiso   1.00
Pr283  Pr    0.50000   0.49217   0.25000   0.00000  Uiso   1.00
N284   N    -0.00000  -0.24260   0.25000   0.00000  Uiso   1.00
O285   O    -0.00000  -0.33630   0.25000   0.00000  Uiso   1.00
Pr286  Pr   -0.00000  -0.00783   0.25000   0.00000  Uiso   1.00
N287   N     0.50000   0.74260   0.75000   0.00000  Uiso   1.00
O288   O     0.50000   0.83630   0.75000   0.00000  Uiso   1.00
Pr289  Pr    0.50000   0.50783   0.75000   0.00000  Uiso   1.00
N290   N     0.00000   0.24260   0.75000   0.00000  Uiso   1.00
O291   O     0.00000   0.33630   0.75000   0.00000  Uiso   1.00
Pr292  Pr    0.00000   0.00783   0.75000   0.00000  Uiso   1.00
loop_
_geom_bond_atom_site_label_1
_geom_bond_atom_site_label_2
_geom_bond_distance
_geom_bond_site_symmetry_2
_ccdc_geom_bond_type
C1     C2      1.505   .     S
C1     O28     1.275   .     S
C1     O29     1.247   .     S
C2     H3      0.969   .     S
C2     H4      0.970   .     S
C2     N24     1.448   .     S
C5     N24     1.295   .     S
C5     N26     1.393   .     S
C5     S35     1.682   .     S
C6     C7      1.486   .     S
C6     O30     1.226   .     S
C6     N26     1.373   .     S
C7     C8      1.411   1_556 S
C7     C14     1.363   .     S
C8     C7      1.411   1_554 S
C8     H9      0.929   .     S
C8     C10     1.359   .     S
C10    H11     0.929   .     S
C10    C12     1.396   .     S
C12    C13     1.403   1_554 S
C12    C16     1.435   .     S
C13    C12     1.403   1_556 S
C13    C22     1.420   .     S
C13    C14     1.424   .     S
C14    H15     0.930   .     S
C16    H17     0.931   .     S
C16    C18     1.342   .     S
C18    H19     0.930   .     S
C18    C20     1.407   .     S
C20    H21     0.928   1_554 S
C20    C22     1.380   1_554 S
H21    C20     0.928   1_556 S
C22    H23     0.930   .     S
C22    C20     1.380   1_556 S
N24    H25     0.844   .     S
N26    H27     0.852   .     S
O28    Pr283   2.462   .     S
O28    Pr289   2.698   .     S
O29    Pr289   2.548   .     S
O31    N281    1.257   .     S
O31    Pr283   2.633   .     S
O32    H33     0.866   .     S
O32    H34     0.919   .     S
O32    Pr283   2.509   .     S
C36    C37     1.505   .     S
C36    O63     1.275   .     S
C36    O64     1.247   .     S
C37    H38     0.969   .     S
C37    H39     0.970   .     S
C37    N59     1.448   .     S
C40    N59     1.295   .     S
C40    N61     1.393   .     S
C40    S70     1.682   .     S
C41    C42     1.486   .     S
C41    O65     1.226   .     S
C41    N61     1.373   .     S
C42    C43     1.411   1_556 S
C42    C49     1.363   .     S
C43    C42     1.411   1_554 S
C43    H44     0.929   .     S
C43    C45     1.359   .     S
C45    H46     0.929   .     S
C45    C47     1.396   .     S
C47    C48     1.403   1_554 S
C47    C51     1.435   .     S
C48    C47     1.403   1_556 S
C48    C57     1.420   .     S
C48    C49     1.424   .     S
C49    H50     0.930   .     S
C51    H52     0.931   .     S
C51    C53     1.342   .     S
C53    H54     0.930   .     S
C53    C55     1.407   .     S
C55    H56     0.928   1_554 S
C55    C57     1.380   1_554 S
H56    C55     0.928   1_556 S
C57    H58     0.930   .     S
C57    C55     1.380   1_556 S
N59    H60     0.844   .     S
N61    H62     0.852   .     S
O63    Pr286   2.462   .     S
O63    Pr292   2.698   .     S
O64    Pr292   2.548   .     S
O66    N284    1.257   .     S
O66    Pr286   2.633   .     S
O67    H68     0.866   .     S
O67    H69     0.919   .     S
O67    Pr286   2.509   .     S
C71    C72     1.505   1_556 S
C71    O98     1.275   1_556 S
C71    O99     1.247   .     S
C72    C71     1.505   1_554 S
C72    H73     0.969   .     S
C72    H74     0.970   .     S
C72    N94     1.448   1_554 S
C75    N94     1.295   .     S
C75    N96     1.393   .     S
C75    S105    1.682   1_556 S
C76    C77     1.486   .     S
C76    O100    1.226   .     S
C76    N96     1.373   .     S
C77    C78     1.411   .     S
C77    C84     1.363   .     S
C78    H79     0.929   .     S
C78    C80     1.359   .     S
C80    H81     0.929   .     S
C80    C82     1.396   .     S
C82    C83     1.403   .     S
C82    C86     1.435   .     S
C83    C92     1.420   .     S
C83    C84     1.424   .     S
C84    H85     0.930   .     S
C86    H87     0.931   .     S
C86    C88     1.342   .     S
C88    H89     0.930   .     S
C88    C90     1.407   .     S
C90    H91     0.928   .     S
C90    C92     1.380   .     S
C92    H93     0.930   .     S
N94    C72     1.448   1_556 S
N94    H95     0.844   .     S
N96    H97     0.852   .     S
O98    C71     1.275   1_554 S
O98    Pr283   2.462   .     S
O98    Pr289   2.698   1_554 S
O99    Pr289   2.548   .     S
O101   N281    1.257   .     S
O101   Pr283   2.633   .     S
O102   H103    0.866   .     S
O102   H104    0.919   .     S
O102   Pr283   2.509   .     S
S105   C75     1.682   1_554 S
C106   C107    1.505   1_556 S
C106   O133    1.275   1_556 S
C106   O134    1.247   .     S
C107   C106    1.505   1_554 S
C107   H108    0.969   .     S
C107   H109    0.970   .     S
C107   N129    1.448   1_554 S
C110   N129    1.295   .     S
C110   N131    1.393   .     S
C110   S140    1.682   1_556 S
C111   C112    1.486   .     S
C111   O135    1.226   .     S
C111   N131    1.373   .     S
C112   C113    1.411   .     S
C112   C119    1.363   .     S
C113   H114    0.929   .     S
C113   C115    1.359   .     S
C115   H116    0.929   .     S
C115   C117    1.396   .     S
C117   C118    1.403   .     S
C117   C121    1.435   .     S
C118   C127    1.420   .     S
C118   C119    1.424   .     S
C119   H120    0.930   .     S
C121   H122    0.931   .     S
C121   C123    1.342   .     S
C123   H124    0.930   .     S
C123   C125    1.407   .     S
C125   H126    0.928   .     S
C125   C127    1.380   .     S
C127   H128    0.930   .     S
N129   C107    1.448   1_556 S
N129   H130    0.844   .     S
N131   H132    0.852   .     S
O133   C106    1.275   1_554 S
O133   Pr286   2.462   .     S
O133   Pr292   2.698   1_554 S
O134   Pr292   2.548   .     S
O136   N284    1.257   .     S
O136   Pr286   2.633   .     S
O137   H138    0.866   .     S
O137   H139    0.919   .     S
O137   Pr286   2.509   .     S
S140   C110    1.682   1_554 S
C141   C142    1.505   .     S
C141   O168    1.275   .     S
C141   O169    1.247   .     S
C142   H143    0.969   .     S
C142   H144    0.970   .     S
C142   N164    1.448   .     S
C145   N164    1.295   .     S
C145   N166    1.393   .     S
C145   S175    1.682   .     S
C146   C147    1.486   .     S
C146   O170    1.226   .     S
C146   N166    1.373   .     S
C147   C148    1.411   1_554 S
C147   C154    1.363   .     S
C148   C147    1.411   1_556 S
C148   H149    0.929   .     S
C148   C150    1.359   .     S
C150   H151    0.929   .     S
C150   C152    1.396   .     S
C152   C153    1.403   1_556 S
C152   C156    1.435   .     S
C153   C152    1.403   1_554 S
C153   C162    1.420   .     S
C153   C154    1.424   .     S
C154   H155    0.930   .     S
C156   H157    0.931   .     S
C156   C158    1.342   .     S
C158   H159    0.930   .     S
C158   C160    1.407   .     S
C160   H161    0.928   1_556 S
C160   C162    1.380   1_556 S
H161   C160    0.928   1_554 S
C162   H163    0.930   .     S
C162   C160    1.380   1_554 S
N164   H165    0.844   .     S
N166   H167    0.852   .     S
O168   Pr289   2.462   .     S
O168   Pr283   2.698   .     S
O169   Pr283   2.548   .     S
O171   N287    1.257   .     S
O171   Pr289   2.633   .     S
O172   H173    0.866   .     S
O172   H174    0.919   .     S
O172   Pr289   2.509   .     S
C176   C177    1.505   .     S
C176   O203    1.275   .     S
C176   O204    1.247   .     S
C177   H178    0.969   .     S
C177   H179    0.970   .     S
C177   N199    1.448   .     S
C180   N199    1.295   .     S
C180   N201    1.393   .     S
C180   S210    1.682   .     S
C181   C182    1.486   .     S
C181   O205    1.226   .     S
C181   N201    1.373   .     S
C182   C183    1.411   1_554 S
C182   C189    1.363   .     S
C183   C182    1.411   1_556 S
C183   H184    0.929   .     S
C183   C185    1.359   .     S
C185   H186    0.929   .     S
C185   C187    1.396   .     S
C187   C188    1.403   1_556 S
C187   C191    1.435   .     S
C188   C187    1.403   1_554 S
C188   C197    1.420   .     S
C188   C189    1.424   .     S
C189   H190    0.930   .     S
C191   H192    0.931   .     S
C191   C193    1.342   .     S
C193   H194    0.930   .     S
C193   C195    1.407   .     S
C195   H196    0.928   1_556 S
C195   C197    1.380   1_556 S
H196   C195    0.928   1_554 S
C197   H198    0.930   .     S
C197   C195    1.380   1_554 S
N199   H200    0.844   .     S
N201   H202    0.852   .     S
O203   Pr292   2.462   .     S
O203   Pr286   2.698   .     S
O204   Pr286   2.548   .     S
O206   N290    1.257   .     S
O206   Pr292   2.633   .     S
O207   H208    0.866   .     S
O207   H209    0.919   .     S
O207   Pr292   2.509   .     S
C211   C212    1.505   1_554 S
C211   O238    1.275   1_554 S
C211   O239    1.247   .     S
C212   C211    1.505   1_556 S
C212   H213    0.969   .     S
C212   H214    0.970   .     S
C212   N234    1.448   1_556 S
C215   N234    1.295   .     S
C215   N236    1.393   .     S
C215   S245    1.682   1_554 S
C216   C217    1.486   .     S
C216   O240    1.226   .     S
C216   N236    1.373   .     S
C217   C218    1.411   .     S
C217   C224    1.363   .     S
C218   H219    0.929   .     S
C218   C220    1.359   .     S
C220   H221    0.929   .     S
C220   C222    1.396   .     S
C222   C223    1.403   .     S
C222   C226    1.435   .     S
C223   C232    1.420   .     S
C223   C224    1.424   .     S
C224   H225    0.930   .     S
C226   H227    0.931   .     S
C226   C228    1.342   .     S
C228   H229    0.930   .     S
C228   C230    1.407   .     S
C230   H231    0.928   .     S
C230   C232    1.380   .     S
C232   H233    0.930   .     S
N234   C212    1.448   1_554 S
N234   H235    0.844   .     S
N236   H237    0.852   .     S
O238   C211    1.275   1_556 S
O238   Pr289   2.462   .     S
O238   Pr283   2.698   1_556 S
O239   Pr283   2.548   .     S
O241   N287    1.257   .     S
O241   Pr289   2.633   .     S
O242   H243    0.866   .     S
O242   H244    0.919   .     S
O242   Pr289   2.509   .     S
S245   C215    1.682   1_556 S
C246   C247    1.505   1_554 S
C246   O273    1.275   1_554 S
C246   O274    1.247   .     S
C247   C246    1.505   1_556 S
C247   H248    0.969   .     S
C247   H249    0.970   .     S
C247   N269    1.448   1_556 S
C250   N269    1.295   .     S
C250   N271    1.393   .     S
C250   S280    1.682   1_554 S
C251   C252    1.486   .     S
C251   O275    1.226   .     S
C251   N271    1.373   .     S
C252   C253    1.411   .     S
C252   C259    1.363   .     S
C253   H254    0.929   .     S
C253   C255    1.359   .     S
C255   H256    0.929   .     S
C255   C257    1.396   .     S
C257   C258    1.403   .     S
C257   C261    1.435   .     S
C258   C267    1.420   .     S
C258   C259    1.424   .     S
C259   H260    0.930   .     S
C261   H262    0.931   .     S
C261   C263    1.342   .     S
C263   H264    0.930   .     S
C263   C265    1.407   .     S
C265   H266    0.928   .     S
C265   C267    1.380   .     S
C267   H268    0.930   .     S
N269   C247    1.448   1_554 S
N269   H270    0.844   .     S
N271   H272    0.852   .     S
O273   C246    1.275   1_556 S
O273   Pr292   2.462   .     S
O273   Pr286   2.698   1_556 S
O274   Pr286   2.548   .     S
O276   N290    1.257   .     S
O276   Pr292   2.633   .     S
O277   H278    0.866   .     S
O277   H279    0.919   .     S
O277   Pr292   2.509   .     S
S280   C250    1.682   1_556 S
N281   O282    1.225   .     S
Pr283  O238    2.698   1_554 S
N284   O285    1.225   .     S
Pr286  O273    2.698   1_554 S
N287   O288    1.225   .     S
Pr289  O98     2.698   1_556 S
N290   O291    1.225   .     S
Pr292  O133    2.698   1_556 S
