data_JESYOZ_FSR
_audit_creation_date              2024-06-11
_audit_creation_method            'Materials Studio'
_symmetry_space_group_name_H-M    'P1'
_symmetry_Int_Tables_number       1
_symmetry_cell_setting            triclinic
loop_
_symmetry_equiv_pos_as_xyz
  x,y,z
_cell_length_a                    9.9803
_cell_length_b                    10.0899
_cell_length_c                    12.3539
_cell_angle_alpha                 85.4970
_cell_angle_beta                  79.7100
_cell_angle_gamma                 86.2540
loop_
_atom_site_label
_atom_site_type_symbol
_atom_site_fract_x
_atom_site_fract_y
_atom_site_fract_z
_atom_site_U_iso_or_equiv
_atom_site_adp_type
_atom_site_occupancy
Cd1    Cd    0.74778   0.59766   0.44249   0.00000  Uiso   1.00
Cd2    Cd    0.68353   0.68219   0.75492   0.00000  Uiso   1.00
P3     P     0.43050   0.60720   0.65409   0.00000  Uiso   1.00
P4     P     0.97250   0.60390   0.64454   0.00000  Uiso   1.00
O5     O     0.55170   0.62240   0.56400   0.00000  Uiso   1.00
O6     O     0.45740   0.66940   0.75730   0.00000  Uiso   1.00
O7     O     0.38130   0.46680   0.68100   0.00000  Uiso   1.00
O8     O     0.94760   0.69120   0.74370   0.00000  Uiso   1.00
O9     O     0.83610   0.59310   0.60700   0.00000  Uiso   1.00
O10    O     0.04320   0.47190   0.67190   0.00000  Uiso   1.00
N11    N     0.64490   0.74970   0.94080   0.00000  Uiso   1.00
N12    N     0.70140   0.49120   0.87190   0.00000  Uiso   1.00
N13    N     0.61900   0.68430   1.11750   0.00000  Uiso   1.00
H14    H     0.61363   0.63318   1.17707   0.00000  Uiso   1.00
N15    N     0.66570   0.39780   1.04080   0.00000  Uiso   1.00
H16    H     0.64713   0.38846   1.11155   0.00000  Uiso   1.00
N17    N     0.22960   0.64800   0.52640   0.00000  Uiso   1.00
N18    N     0.30750   0.10110   0.31360   0.00000  Uiso   1.00
C19    C     0.28420   0.70390   0.61760   0.00000  Uiso   1.00
H20    H     0.21289   0.70712   0.68204   0.00000  Uiso   1.00
H21    H     0.30978   0.79439   0.59500   0.00000  Uiso   1.00
C22    C     0.62020   0.85860   1.00150   0.00000  Uiso   1.00
H23    H     0.61424   0.94625   0.97242   0.00000  Uiso   1.00
C24    C     0.60560   0.82020   1.11030   0.00000  Uiso   1.00
H25    H     0.58956   0.87546   1.16855   0.00000  Uiso   1.00
C26    C     0.64230   0.64570   1.01390   0.00000  Uiso   1.00
C27    C     0.66740   0.51260   0.97910   0.00000  Uiso   1.00
C28    C     0.69830   0.29910   0.97190   0.00000  Uiso   1.00
H29    H     0.70559   0.20851   0.99192   0.00000  Uiso   1.00
C30    C     0.71840   0.35640   0.86890   0.00000  Uiso   1.00
H31    H     0.74061   0.31083   0.80505   0.00000  Uiso   1.00
C32    C     0.08340   0.68820   0.53050   0.00000  Uiso   1.00
H33    H     0.05681   0.66905   0.46183   0.00000  Uiso   1.00
H34    H     0.07074   0.78351   0.53719   0.00000  Uiso   1.00
C35    C     0.30990   0.68390   0.41760   0.00000  Uiso   1.00
H36    H     0.27646   0.63677   0.36316   0.00000  Uiso   1.00
H37    H     0.40376   0.65232   0.41782   0.00000  Uiso   1.00
C38    C     0.30840   0.83070   0.38100   0.00000  Uiso   1.00
C39    C     0.41600   0.90510   0.38960   0.00000  Uiso   1.00
H40    H     0.49111   0.86623   0.41728   0.00000  Uiso   1.00
C41    C     0.40990   0.04020   0.35590   0.00000  Uiso   1.00
H42    H     0.48207   0.09052   0.36359   0.00000  Uiso   1.00
C43    C     0.20350   0.02870   0.30590   0.00000  Uiso   1.00
H44    H     0.13040   0.06984   0.27672   0.00000  Uiso   1.00
C45    C     0.19920   0.89530   0.33930   0.00000  Uiso   1.00
H46    H     0.12360   0.84860   0.33392   0.00000  Uiso   1.00
Cl47   Cl    0.78660   0.83460   0.37980   0.00000  Uiso   1.00
Cd48   Cd    0.25222   0.40234   0.55751   0.00000  Uiso   1.00
Cd49   Cd    0.31647   0.31781   0.24508   0.00000  Uiso   1.00
P50    P     0.56950   0.39280   0.34591   0.00000  Uiso   1.00
P51    P     0.02750   0.39610   0.35546   0.00000  Uiso   1.00
O52    O     0.44830   0.37760   0.43600   0.00000  Uiso   1.00
O53    O     0.54260   0.33060   0.24270   0.00000  Uiso   1.00
O54    O     0.61870   0.53320   0.31900   0.00000  Uiso   1.00
O55    O     0.05240   0.30880   0.25630   0.00000  Uiso   1.00
O56    O     0.16390   0.40690   0.39300   0.00000  Uiso   1.00
O57    O     0.95680   0.52810   0.32810   0.00000  Uiso   1.00
N58    N     0.35510   0.25030   0.05920   0.00000  Uiso   1.00
N59    N     0.29860   0.50880   0.12810   0.00000  Uiso   1.00
N60    N     0.38100   0.31570  -0.11750   0.00000  Uiso   1.00
H61    H     0.38637   0.36682  -0.17707   0.00000  Uiso   1.00
N62    N     0.33430   0.60220  -0.04080   0.00000  Uiso   1.00
H63    H     0.35287   0.61154  -0.11155   0.00000  Uiso   1.00
N64    N     0.77040   0.35200   0.47360   0.00000  Uiso   1.00
N65    N     0.69250   0.89890   0.68640   0.00000  Uiso   1.00
C66    C     0.71580   0.29610   0.38240   0.00000  Uiso   1.00
H67    H     0.78711   0.29288   0.31796   0.00000  Uiso   1.00
H68    H     0.69022   0.20561   0.40500   0.00000  Uiso   1.00
C69    C     0.37980   0.14140  -0.00150   0.00000  Uiso   1.00
H70    H     0.38576   0.05375   0.02758   0.00000  Uiso   1.00
C71    C     0.39440   0.17980  -0.11030   0.00000  Uiso   1.00
H72    H     0.41044   0.12454  -0.16855   0.00000  Uiso   1.00
C73    C     0.35770   0.35430  -0.01390   0.00000  Uiso   1.00
C74    C     0.33260   0.48740   0.02090   0.00000  Uiso   1.00
C75    C     0.30170   0.70090   0.02810   0.00000  Uiso   1.00
H76    H     0.29441   0.79149   0.00808   0.00000  Uiso   1.00
C77    C     0.28160   0.64360   0.13110   0.00000  Uiso   1.00
H78    H     0.25939   0.68917   0.19495   0.00000  Uiso   1.00
C79    C     0.91660   0.31180   0.46950   0.00000  Uiso   1.00
H80    H     0.94319   0.33095   0.53817   0.00000  Uiso   1.00
H81    H     0.92926   0.21649   0.46282   0.00000  Uiso   1.00
C82    C     0.69010   0.31610   0.58240   0.00000  Uiso   1.00
H83    H     0.72354   0.36323   0.63684   0.00000  Uiso   1.00
H84    H     0.59624   0.34768   0.58218   0.00000  Uiso   1.00
C85    C     0.69160   0.16930   0.61900   0.00000  Uiso   1.00
C86    C     0.58400   0.09490   0.61040   0.00000  Uiso   1.00
H87    H     0.50889   0.13377   0.58272   0.00000  Uiso   1.00
C88    C     0.59010   0.95980   0.64410   0.00000  Uiso   1.00
H89    H     0.51793   0.90948   0.63641   0.00000  Uiso   1.00
C90    C     0.79650   0.97130   0.69410   0.00000  Uiso   1.00
H91    H     0.86960   0.93016   0.72328   0.00000  Uiso   1.00
C92    C     0.80080   0.10470   0.66070   0.00000  Uiso   1.00
H93    H     0.87640   0.15140   0.66608   0.00000  Uiso   1.00
Cl94   Cl    0.21340   0.16540   0.62020   0.00000  Uiso   1.00
loop_
_geom_bond_atom_site_label_1
_geom_bond_atom_site_label_2
_geom_bond_distance
_geom_bond_site_symmetry_2
_ccdc_geom_bond_type
Cd1    O5      2.256   .     S
Cd1    Cl47    2.488   .     S
Cd1    O54     2.319   .     S
Cd1    O9      2.351   .     S
Cd1    O57     2.398   .     S
Cd1    N64     2.480   .     S
Cd2    O6      2.264   .     S
Cd2    N11     2.404   .     S
Cd2    N12     2.333   .     S
Cd2    O8      2.621   .     S
Cd2    N65     2.283   .     S
Cd2    O9      2.356   .     S
P3     O5      1.497   .     S
P3     O6      1.537   .     S
P3     O7      1.522   .     S
P3     C19     1.808   .     S
P4     O8      1.540   .     S
P4     O9      1.527   .     S
P4     O10     1.509   1_655 S
P4     C32     1.820   1_655 S
O7     Cd48    2.319   .     S
O10    P4      1.509   1_455 S
O10    Cd48    2.398   .     S
N11    C22     1.363   .     S
N11    C26     1.328   .     S
N12    C27     1.338   .     S
N12    C30     1.362   .     S
N13    H14     0.860   .     S
N13    C24     1.366   .     S
N13    C26     1.343   .     S
N15    H16     0.859   .     S
N15    C28     1.347   .     S
N15    C27     1.335   .     S
N17    C19     1.498   .     S
N17    C35     1.469   .     S
N17    C32     1.482   .     S
N17    Cd48    2.480   .     S
N18    C41     1.324   .     S
N18    C43     1.329   .     S
N18    Cd49    2.283   .     S
C19    H20     0.969   .     S
C19    H21     0.970   .     S
C22    H23     0.930   .     S
C22    C24     1.354   .     S
C24    H25     0.930   .     S
C26    C27     1.435   .     S
C28    H29     0.930   .     S
C28    C30     1.342   .     S
C30    H31     0.929   .     S
C32    P4      1.820   1_455 S
C32    H33     0.970   .     S
C32    H34     0.970   .     S
C35    H36     0.970   .     S
C35    H37     0.970   .     S
C35    C38     1.514   .     S
C38    C39     1.374   .     S
C38    C45     1.390   .     S
C39    H40     0.930   .     S
C39    C41     1.394   1_565 S
C41    C39     1.394   1_545 S
C41    H42     0.930   .     S
C43    H44     0.930   .     S
C43    C45     1.378   1_545 S
C45    H46     0.930   .     S
C45    C43     1.378   1_565 S
Cd48   O52     2.256   .     S
Cd48   Cl94    2.488   .     S
Cd48   O56     2.351   .     S
Cd49   O53     2.264   .     S
Cd49   N58     2.404   .     S
Cd49   N59     2.333   .     S
Cd49   O55     2.621   .     S
Cd49   O56     2.356   .     S
P50    O52     1.497   .     S
P50    O53     1.537   .     S
P50    O54     1.522   .     S
P50    C66     1.808   .     S
P51    O55     1.540   .     S
P51    O56     1.527   .     S
P51    O57     1.509   1_455 S
P51    C79     1.820   1_455 S
O57    P51     1.509   1_655 S
N58    C69     1.363   .     S
N58    C73     1.328   .     S
N59    C74     1.338   .     S
N59    C77     1.362   .     S
N60    H61     0.860   .     S
N60    C71     1.366   .     S
N60    C73     1.343   .     S
N62    H63     0.859   .     S
N62    C75     1.347   .     S
N62    C74     1.335   .     S
N64    C66     1.498   .     S
N64    C82     1.469   .     S
N64    C79     1.482   .     S
N65    C88     1.324   .     S
N65    C90     1.329   .     S
C66    H67     0.969   .     S
C66    H68     0.970   .     S
C69    H70     0.930   .     S
C69    C71     1.354   .     S
C71    H72     0.930   .     S
C73    C74     1.435   .     S
C75    H76     0.930   .     S
C75    C77     1.342   .     S
C77    H78     0.929   .     S
C79    P51     1.820   1_655 S
C79    H80     0.970   .     S
C79    H81     0.970   .     S
C82    H83     0.970   .     S
C82    H84     0.970   .     S
C82    C85     1.514   .     S
C85    C86     1.374   .     S
C85    C92     1.390   .     S
C86    H87     0.930   .     S
C86    C88     1.394   1_545 S
C88    C86     1.394   1_565 S
C88    H89     0.930   .     S
C90    H91     0.930   .     S
C90    C92     1.378   1_565 S
C92    H93     0.930   .     S
C92    C90     1.378   1_545 S
