data_JESYIT_direct
_audit_creation_date              2024-06-11
_audit_creation_method            'Materials Studio'
_symmetry_space_group_name_H-M    'P1'
_symmetry_Int_Tables_number       1
_symmetry_cell_setting            triclinic
loop_
_symmetry_equiv_pos_as_xyz
  x,y,z
_cell_length_a                    9.8444
_cell_length_b                    10.0153
_cell_length_c                    10.0369
_cell_angle_alpha                 64.1400
_cell_angle_beta                  65.2070
_cell_angle_gamma                 66.0460
loop_
_atom_site_label
_atom_site_type_symbol
_atom_site_fract_x
_atom_site_fract_y
_atom_site_fract_z
_atom_site_U_iso_or_equiv
_atom_site_adp_type
_atom_site_occupancy
Cd1    Cd    0.05306   0.77223   0.87573   0.00000  Uiso   1.00
Cd2    Cd    0.59690   0.42147  -0.00437   0.00000  Uiso   1.00
P3     P     0.26236   0.39941   0.92347   0.00000  Uiso   1.00
P4     P     0.21012   0.94217   0.97429   0.00000  Uiso   1.00
O5     O     0.21780   0.58235   0.82252   0.00000  Uiso   1.00
O6     O     0.10184   0.36315   0.05903   0.00000  Uiso   1.00
O7     O     0.39091   0.37009   1.02263   0.00000  Uiso   1.00
O8     O     0.09117   1.00755   0.11811   0.00000  Uiso   1.00
O9     O     0.37290   0.89835   1.00643   0.00000  Uiso   1.00
H10    H     0.46831   0.89695   0.92256   0.00000  Uiso   1.00
O11    O     0.18590   0.76033   1.00882   0.00000  Uiso   1.00
N12    N     0.13480   0.88432   0.62719   0.00000  Uiso   1.00
N13    N     0.19666   0.01058   0.36973   0.00000  Uiso   1.00
H14    H     0.18799   0.08108   0.25911   0.00000  Uiso   1.00
N15    N     0.18400   0.25250   0.80119   0.00000  Uiso   1.00
C16    C     0.28883   0.86774   0.56846   0.00000  Uiso   1.00
H17    H     0.36801   0.80636   0.63700   0.00000  Uiso   1.00
C18    C     0.32666   0.94279   0.41228   0.00000  Uiso   1.00
H19    H     0.44002   0.95090   0.33544   0.00000  Uiso   1.00
C20    C     0.08162   0.97331   0.50010   0.00000  Uiso   1.00
C21    C     0.32346   0.27284   0.80480   0.00000  Uiso   1.00
H22    H     0.39810   0.32044   0.68701   0.00000  Uiso   1.00
H23    H     0.39572   0.16216   0.86241   0.00000  Uiso   1.00
C24    C     0.21071   0.10224   0.78589   0.00000  Uiso   1.00
H25    H     0.32077   0.07287   0.69664   0.00000  Uiso   1.00
H26    H     0.11602   0.10705   0.75121   0.00000  Uiso   1.00
C27    C     0.10834   0.38640   0.68779   0.00000  Uiso   1.00
H28    H     0.06959   0.49141   0.72065   0.00000  Uiso   1.00
H29    H     0.99958   0.37018   0.69588   0.00000  Uiso   1.00
C30    C     0.21248   0.41365   0.52186   0.00000  Uiso   1.00
C31    C     0.24914   0.31071   0.44596   0.00000  Uiso   1.00
H32    H     0.19398   0.21903   0.49760   0.00000  Uiso   1.00
C33    C     0.36548   0.31664   0.30686   0.00000  Uiso   1.00
H34    H     0.40976   0.21735   0.26942   0.00000  Uiso   1.00
C35    C     0.27578   0.53924   0.44426   0.00000  Uiso   1.00
H36    H     0.24197   0.62577   0.49772   0.00000  Uiso   1.00
N37    N     0.44178   0.43887   0.22223   0.00000  Uiso   1.00
C38    C     0.38219   0.55558   0.29624   0.00000  Uiso   1.00
H39    H     0.41687   0.66054   0.23618   0.00000  Uiso   1.00
Cd40   Cd    0.94693   0.22778   0.12430   0.00000  Uiso   1.00
Cd41   Cd    0.40313   0.57852   1.00435   0.00000  Uiso   1.00
P42    P     0.73766   0.60058   0.07654   0.00000  Uiso   1.00
P43    P     0.78985   0.05787   0.02571   0.00000  Uiso   1.00
O44    O     0.78219   0.41764   0.17751   0.00000  Uiso   1.00
O45    O     0.89819   0.63682   0.94100   0.00000  Uiso   1.00
O46    O     0.60914   0.62989  -0.02264   0.00000  Uiso   1.00
O47    O     0.90877  -0.00754   0.88189   0.00000  Uiso   1.00
O48    O     0.62705   0.10180  -0.00644   0.00000  Uiso   1.00
H49    H     0.53175   0.10264   0.07753   0.00000  Uiso   1.00
O50    O     0.81414   0.23968  -0.00883   0.00000  Uiso   1.00
N51    N     0.86518   0.11568   0.37284   0.00000  Uiso   1.00
N52    N     0.80332   0.98939   0.63030   0.00000  Uiso   1.00
H53    H     0.81198   0.91887   0.74092   0.00000  Uiso   1.00
N54    N     0.81599   0.74753   0.19880   0.00000  Uiso   1.00
C55    C     0.71114   0.13227   0.43157   0.00000  Uiso   1.00
H56    H     0.63197   0.19366   0.36304   0.00000  Uiso   1.00
C57    C     0.67332   0.05720   0.58775   0.00000  Uiso   1.00
H58    H     0.55996   0.04908   0.66460   0.00000  Uiso   1.00
C59    C     0.91836   0.02667   0.49993   0.00000  Uiso   1.00
C60    C     0.67654   0.72717   0.19520   0.00000  Uiso   1.00
H61    H     0.60190   0.67957   0.31298   0.00000  Uiso   1.00
H62    H     0.60428   0.83782   0.13757   0.00000  Uiso   1.00
C63    C     0.78925   0.89779   0.21411   0.00000  Uiso   1.00
H64    H     0.67919   0.92715   0.30337   0.00000  Uiso   1.00
H65    H     0.88392   0.89300   0.24880   0.00000  Uiso   1.00
C66    C     0.89167   0.61364   0.31218   0.00000  Uiso   1.00
H67    H     0.93044   0.50864   0.27931   0.00000  Uiso   1.00
H68    H     0.00042   0.62988   0.30409   0.00000  Uiso   1.00
C69    C     0.78754   0.58637   0.47811   0.00000  Uiso   1.00
C70    C     0.75088   0.68930   0.55403   0.00000  Uiso   1.00
H71    H     0.80604   0.78098   0.50240   0.00000  Uiso   1.00
C72    C     0.63454   0.68335   0.69313   0.00000  Uiso   1.00
H73    H     0.59027   0.78264   0.73058   0.00000  Uiso   1.00
C74    C     0.72424   0.46078   0.55570   0.00000  Uiso   1.00
H75    H     0.75805   0.37427   0.50223   0.00000  Uiso   1.00
N76    N     0.55826   0.56113   0.77776   0.00000  Uiso   1.00
C77    C     0.61783   0.44444   0.70372   0.00000  Uiso   1.00
H78    H     0.58314   0.33947   0.76377   0.00000  Uiso   1.00
loop_
_geom_bond_atom_site_label_1
_geom_bond_atom_site_label_2
_geom_bond_distance
_geom_bond_site_symmetry_2
_ccdc_geom_bond_type
Cd1    O5      2.046   .     S
Cd1    N12     2.177   .     S
Cd1    O45     2.159   1_455 S
Cd1    O47     2.095   1_465 S
Cd1    O11     2.170   .     S
Cd2    O7      2.172   1_554 S
Cd2    O46     2.063   .     S
Cd2    O50     2.172   .     S
Cd2    N37     2.180   .     S
Cd2    N76     2.117   1_554 S
P3     O5      1.636   .     A
P3     O6      1.647   1_556 A
P3     O7      1.783   .     S
P3     C21     1.867   .     S
P4     O8      1.633   1_556 A
P4     O9      1.613   .     A
P4     O11     1.796   .     S
P4     C24     1.871   1_565 S
O6     P3      1.647   1_554 A
O6     Cd40    2.159   1_455 S
O7     Cd2     2.172   1_556 S
O7     Cd41    2.063   .     S
O8     P4      1.633   1_554 A
O8     Cd40    2.095   1_465 S
O9     H10     0.963   .     S
O11    Cd41    2.173   .     S
N12    C16     1.344   .     A
N12    C20     1.373   .     A
N13    H14     1.042   .     S
N13    C18     1.335   1_545 A
N13    C20     1.345   1_545 A
N15    C21     1.484   .     S
N15    C27     1.489   .     S
N15    C24     1.485   .     S
C16    H17     1.072   .     S
C16    C18     1.368   .     A
C18    N13     1.335   1_565 A
C18    H19     1.070   .     S
C20    C59     1.474   1_465 S
C20    N13     1.345   1_565 A
C21    H22     1.109   .     S
C21    H23     1.102   .     S
C24    P4      1.871   1_545 S
C24    H25     1.105   .     S
C24    H26     1.102   .     S
C27    H28     1.110   .     S
C27    H29     1.112   1_455 S
C27    C30     1.516   .     S
H29    C27     1.112   1_655 S
C30    C31     1.388   .     A
C30    C35     1.397   .     A
C31    H32     1.077   .     S
C31    C33     1.381   .     A
C33    H34     1.076   .     S
C33    N37     1.445   .     S
C35    H36     1.082   .     S
C35    C38     1.398   .     A
N37    Cd41    2.117   1_554 S
N37    C38     1.448   .     S
C38    H39     1.073   .     S
Cd40   O44     2.046   .     S
Cd40   N51     2.177   .     S
Cd40   O6      2.159   1_655 S
Cd40   O8      2.095   1_645 S
Cd40   O50     2.170   .     S
Cd41   O46     2.172   1_556 S
Cd41   N76     2.180   .     S
Cd41   N37     2.117   1_556 S
P42    O44     1.636   .     A
P42    O45     1.647   1_554 A
P42    O46     1.783   .     S
P42    C60     1.867   .     S
P43    O47     1.633   1_554 A
P43    O48     1.614   .     A
P43    O50     1.796   .     S
P43    C63     1.871   1_545 S
O45    P42     1.647   1_556 A
O45    Cd1     2.159   1_655 S
O46    Cd41    2.172   1_554 S
O47    P43     1.633   1_556 A
O47    Cd1     2.095   1_645 S
O48    H49     0.963   .     S
N51    C55     1.344   .     A
N51    C59     1.373   .     A
N52    H53     1.042   .     S
N52    C57     1.335   1_565 A
N52    C59     1.345   1_565 A
N54    C60     1.484   .     S
N54    C66     1.489   .     S
N54    C63     1.485   .     S
C55    H56     1.072   .     S
C55    C57     1.368   .     A
C57    N52     1.335   1_545 A
C57    H58     1.070   .     S
C59    C20     1.474   1_645 S
C59    N52     1.345   1_545 A
C60    H61     1.109   .     S
C60    H62     1.102   .     S
C63    P43     1.871   1_565 S
C63    H64     1.105   .     S
C63    H65     1.101   .     S
C66    H67     1.110   .     S
C66    H68     1.112   1_655 S
C66    C69     1.516   .     S
H68    C66     1.112   1_455 S
C69    C70     1.388   .     A
C69    C74     1.397   .     A
C70    H71     1.077   .     S
C70    C72     1.381   .     A
C72    H73     1.075   .     S
C72    N76     1.445   .     S
C74    H75     1.082   .     S
C74    C77     1.398   .     A
N76    Cd2     2.117   1_556 S
N76    C77     1.448   .     S
C77    H78     1.073   .     S
