data_JICHOV_FSR
_audit_creation_date              2024-06-11
_audit_creation_method            'Materials Studio'
_symmetry_space_group_name_H-M    'P1'
_symmetry_Int_Tables_number       1
_symmetry_cell_setting            triclinic
loop_
_symmetry_equiv_pos_as_xyz
  x,y,z
_cell_length_a                    6.2914
_cell_length_b                    8.6698
_cell_length_c                    12.9473
_cell_angle_alpha                 105.4820
_cell_angle_beta                  90.4620
_cell_angle_gamma                 105.1810
loop_
_atom_site_label
_atom_site_type_symbol
_atom_site_fract_x
_atom_site_fract_y
_atom_site_fract_z
_atom_site_U_iso_or_equiv
_atom_site_adp_type
_atom_site_occupancy
C1     C     0.21480   0.79230   0.86920   0.00000  Uiso   1.00
C2     C     0.90280   0.41950   0.48000   0.00000  Uiso   1.00
C3     C     0.44330   0.54910   0.04640   0.00000  Uiso   1.00
C4     C     0.95470   0.19490   0.87090   0.00000  Uiso   1.00
C5     C     0.76850   0.10440   0.78180   0.00000  Uiso   1.00
Gd6    Gd    0.05885   0.52898   0.25755   0.00000  Uiso   1.00
Gd7    Gd    0.30938   0.16662   0.07512   0.00000  Uiso   1.00
O8     O     0.01240   0.76910   0.84010   0.00000  Uiso   1.00
O9     O     0.32880   0.47180   0.10230   0.00000  Uiso   1.00
O10    O     0.29680   0.66760   0.83790   0.00000  Uiso   1.00
O11    O     0.34010   0.93230   0.92440   0.00000  Uiso   1.00
O12    O     0.99330   0.11530   0.93370   0.00000  Uiso   1.00
O13    O     0.47920   0.70150   0.05520   0.00000  Uiso   1.00
O14    O     0.05550   0.33970   0.87330   0.00000  Uiso   1.00
O15    O     0.81510   0.35270   0.54730   0.00000  Uiso   1.00
O16    O     0.73440   0.18320   0.71680   0.00000  Uiso   1.00
O17    O     0.36050   0.39860   0.29300   0.00000  Uiso   1.00
O18    O     0.66320   0.96040   0.77670   0.00000  Uiso   1.00
O19    O     0.85550   0.37190   0.38050   0.00000  Uiso   1.00
O20    O     0.76760   0.66950   0.33760   0.00000  Uiso   1.00
H21    H     0.43100   0.49500   0.33100   0.00000  Uiso   1.00
H22    H     0.33500   0.34000   0.33700   0.00000  Uiso   1.00
H23    H     0.77900   0.75800   0.32000   0.00000  Uiso   1.00
H24    H     0.76000   0.69700   0.40520   0.00000  Uiso   1.00
C25    C     0.78520   0.20770   0.13080   0.00000  Uiso   1.00
C26    C     0.09720   0.58050   0.52000   0.00000  Uiso   1.00
C27    C     0.55670   0.45090   0.95360   0.00000  Uiso   1.00
C28    C     0.04530   0.80510   0.12910   0.00000  Uiso   1.00
C29    C     0.23150   0.89560   0.21820   0.00000  Uiso   1.00
Gd30   Gd    0.94115   0.47102   0.74245   0.00000  Uiso   1.00
Gd31   Gd    0.69062   0.83338   0.92488   0.00000  Uiso   1.00
O32    O     0.98760   0.23090   0.15990   0.00000  Uiso   1.00
O33    O     0.67120   0.52820   0.89770   0.00000  Uiso   1.00
O34    O     0.70320   0.33240   0.16210   0.00000  Uiso   1.00
O35    O     0.65990   0.06770   0.07560   0.00000  Uiso   1.00
O36    O     0.00670   0.88470   0.06630   0.00000  Uiso   1.00
O37    O     0.52080   0.29850   0.94480   0.00000  Uiso   1.00
O38    O     0.94450   0.66030   0.12670   0.00000  Uiso   1.00
O39    O     0.18490   0.64730   0.45270   0.00000  Uiso   1.00
O40    O     0.26560   0.81680   0.28320   0.00000  Uiso   1.00
O41    O     0.63950   0.60140   0.70700   0.00000  Uiso   1.00
O42    O     0.33680   0.03960   0.22330   0.00000  Uiso   1.00
O43    O     0.14450   0.62810   0.61950   0.00000  Uiso   1.00
O44    O     0.23240   0.33050   0.66240   0.00000  Uiso   1.00
H45    H     0.56900   0.50500   0.66900   0.00000  Uiso   1.00
H46    H     0.66500   0.66000   0.66300   0.00000  Uiso   1.00
H47    H     0.22100   0.24200   0.68000   0.00000  Uiso   1.00
H48    H     0.24000   0.30300   0.59480   0.00000  Uiso   1.00
loop_
_geom_bond_atom_site_label_1
_geom_bond_atom_site_label_2
_geom_bond_distance
_geom_bond_site_symmetry_2
_ccdc_geom_bond_type
C1     O8      1.273   .     S
C1     O10     1.289   .     S
C1     O11     1.278   .     S
C2     O15     1.228   .     S
C2     O19     1.251   .     S
C2     C26     1.556   1_655 S
C3     O9      1.227   .     S
C3     O13     1.254   .     S
C3     C27     1.569   1_554 S
C4     C5      1.527   .     S
C4     O12     1.257   .     S
C4     O14     1.241   1_655 S
C5     O16     1.266   .     S
C5     O18     1.234   1_545 S
Gd6    O9      2.671   .     S
Gd6    O17     2.545   .     S
Gd6    O20     2.538   1_455 S
Gd6    O39     2.495   .     S
Gd6    O32     2.473   1_455 S
Gd6    O34     2.504   1_455 S
Gd6    O38     2.474   1_455 S
Gd6    O40     2.425   .     S
Gd6    O19     2.511   1_455 S
Gd7    O9      2.544   .     S
Gd7    O37     2.489   1_554 S
Gd7    O36     2.650   1_545 S
Gd7    O42     2.479   .     S
Gd7    O34     2.588   .     S
Gd7    O35     2.567   .     S
Gd7    O11     2.463   1_544 S
Gd7    O12     2.559   1_454 S
Gd7    O32     2.432   1_455 S
O8     Gd30    2.473   1_455 S
O8     Gd31    2.432   1_455 S
O10    Gd30    2.504   1_455 S
O10    Gd31    2.588   .     S
O11    Gd7     2.463   1_566 S
O11    Gd31    2.567   .     S
O12    Gd7     2.559   1_656 S
O12    Gd31    2.650   1_545 S
O13    Gd31    2.489   1_554 S
O14    C4      1.241   1_455 S
O14    Gd30    2.474   1_455 S
O15    Gd30    2.495   .     S
O16    Gd30    2.425   .     S
O17    H21     0.849   .     S
O17    H22     0.850   .     S
O18    C5      1.234   1_565 S
O18    Gd31    2.479   .     S
O19    Gd6     2.511   1_655 S
O20    Gd6     2.538   1_655 S
O20    H23     0.843   .     S
O20    H24     0.849   .     S
C25    O32     1.273   .     S
C25    O34     1.289   .     S
C25    O35     1.278   .     S
C26    O39     1.228   .     S
C26    O43     1.251   .     S
C26    C2      1.556   1_455 S
C27    O33     1.227   .     S
C27    O37     1.254   .     S
C27    C3      1.569   1_556 S
C28    C29     1.527   .     S
C28    O36     1.257   .     S
C28    O38     1.241   1_455 S
C29    O40     1.266   .     S
C29    O42     1.234   1_565 S
Gd30   O33     2.671   .     S
Gd30   O41     2.545   .     S
Gd30   O44     2.538   1_655 S
Gd30   O8      2.473   1_655 S
Gd30   O10     2.504   1_655 S
Gd30   O14     2.474   1_655 S
Gd30   O43     2.511   1_655 S
Gd31   O33     2.544   .     S
Gd31   O13     2.489   1_556 S
Gd31   O12     2.650   1_565 S
Gd31   O35     2.463   1_566 S
Gd31   O36     2.559   1_656 S
Gd31   O8      2.432   1_655 S
O32    Gd6     2.473   1_655 S
O32    Gd7     2.432   1_655 S
O34    Gd6     2.504   1_655 S
O35    Gd31    2.463   1_544 S
O36    Gd31    2.559   1_454 S
O36    Gd7     2.650   1_565 S
O37    Gd7     2.489   1_556 S
O38    C28     1.241   1_655 S
O38    Gd6     2.474   1_655 S
O41    H45     0.849   .     S
O41    H46     0.850   .     S
O42    C29     1.234   1_545 S
O43    Gd30    2.511   1_455 S
O44    Gd30    2.538   1_455 S
O44    H47     0.843   .     S
O44    H48     0.849   .     S
