data_JICJAJ_FSR
_audit_creation_date              2024-06-11
_audit_creation_method            'Materials Studio'
_symmetry_space_group_name_H-M    'P1'
_symmetry_Int_Tables_number       1
_symmetry_cell_setting            triclinic
loop_
_symmetry_equiv_pos_as_xyz
  x,y,z
_cell_length_a                    6.2596
_cell_length_b                    8.6108
_cell_length_c                    12.9187
_cell_angle_alpha                 105.3660
_cell_angle_beta                  90.4510
_cell_angle_gamma                 105.1150
loop_
_atom_site_label
_atom_site_type_symbol
_atom_site_fract_x
_atom_site_fract_y
_atom_site_fract_z
_atom_site_U_iso_or_equiv
_atom_site_adp_type
_atom_site_occupancy
Nd1    Nd    0.05777   0.02794   0.75760   0.00000  Uiso   1.00
O2     O     0.85890   0.86960   0.88010   0.00000  Uiso   1.00
O3     O     0.94360   0.15670   0.62610   0.00000  Uiso   1.00
O4     O     0.26740   0.31590   0.78240   0.00000  Uiso   1.00
O5     O     0.77050   0.17180   0.83770   0.00000  Uiso   1.00
O6     O     0.35970   0.89820   0.79490   0.00000  Uiso   1.00
O7     O     0.32660   0.97050   0.60340   0.00000  Uiso   1.00
O8     O     0.18320   0.15090   0.95320   0.00000  Uiso   1.00
O9     O     0.70200   0.83320   0.66270   0.00000  Uiso   1.00
O10    O     0.98910   0.73100   0.65960   0.00000  Uiso   1.00
C11    C     0.90520   0.91800   0.97730   0.00000  Uiso   1.00
Nd12   Nd    0.30912   0.66677   0.57506   0.00000  Uiso   1.00
C13    C     0.44250   0.05080   0.54540   0.00000  Uiso   1.00
C14    C     0.78480   0.70780   0.63070   0.00000  Uiso   1.00
O15    O     0.52040   0.79800   0.44510   0.00000  Uiso   1.00
O16    O     0.33870   0.43310   0.42510   0.00000  Uiso   1.00
O17    O     0.00520   0.38410   0.56580   0.00000  Uiso   1.00
O18    O     0.33760   0.54280   0.72280   0.00000  Uiso   1.00
C19    C     0.04440   0.30290   0.62750   0.00000  Uiso   1.00
C20    C     0.22970   0.39490   0.71940   0.00000  Uiso   1.00
Nd21   Nd    0.94223   0.97206   0.24240   0.00000  Uiso   1.00
O22    O     0.14110   0.13040   0.11990   0.00000  Uiso   1.00
O23    O     0.05640   0.84330   0.37390   0.00000  Uiso   1.00
O24    O     0.73260   0.68410   0.21760   0.00000  Uiso   1.00
O25    O     0.22950   0.82820   0.16230   0.00000  Uiso   1.00
O26    O     0.64030   0.10180   0.20510   0.00000  Uiso   1.00
O27    O     0.67340   0.02950   0.39660   0.00000  Uiso   1.00
O28    O     0.81680   0.84910   0.04680   0.00000  Uiso   1.00
O29    O     0.29800   0.16680   0.33730   0.00000  Uiso   1.00
O30    O     0.01090   0.26900   0.34040   0.00000  Uiso   1.00
C31    C     0.09480   0.08200   0.02270   0.00000  Uiso   1.00
Nd32   Nd    0.69088   0.33323   0.42494   0.00000  Uiso   1.00
C33    C     0.55750   0.94920   0.45460   0.00000  Uiso   1.00
C34    C     0.21520   0.29220   0.36930   0.00000  Uiso   1.00
O35    O     0.47960   0.20200   0.55490   0.00000  Uiso   1.00
O36    O     0.66130   0.56690   0.57490   0.00000  Uiso   1.00
O37    O     0.99480   0.61590   0.43420   0.00000  Uiso   1.00
O38    O     0.66240   0.45720   0.27720   0.00000  Uiso   1.00
C39    C     0.95560   0.69710   0.37250   0.00000  Uiso   1.00
C40    C     0.77030   0.60510   0.28060   0.00000  Uiso   1.00
loop_
_geom_bond_atom_site_label_1
_geom_bond_atom_site_label_2
_geom_bond_distance
_geom_bond_site_symmetry_2
_ccdc_geom_bond_type
Nd1    O2      2.490   1_445 S
Nd1    O3      2.453   1_455 S
Nd1    O4      2.418   .     S
Nd1    O5      2.520   1_455 S
Nd1    O6      2.535   1_545 S
Nd1    O7      2.648   1_545 S
Nd1    O8      2.498   .     S
Nd1    O9      2.489   1_445 S
Nd1    O10     2.455   1_445 S
O2     Nd1     2.490   1_665 S
O2     C11     1.220   .     S
O3     Nd1     2.453   1_655 S
O3     C19     1.248   1_655 S
O4     C20     1.247   .     S
O5     Nd1     2.520   1_655 S
O6     Nd1     2.535   1_565 S
O7     Nd1     2.648   1_565 S
O7     Nd12    2.516   .     S
O7     C13     1.260   1_565 S
O8     C31     1.258   1_556 S
O9     Nd1     2.489   1_665 S
O9     C14     1.290   .     S
O9     Nd12    2.577   .     S
O10    Nd1     2.455   1_665 S
O10    Nd12    2.409   1_655 S
O10    C14     1.278   .     S
C11    C31     1.557   1_666 S
C11    O28     1.258   1_556 S
Nd12   O15     2.471   .     S
Nd12   O16     2.443   .     S
Nd12   O17     2.643   .     S
Nd12   O18     2.447   .     S
Nd12   O37     2.539   1_455 S
Nd12   O36     2.567   .     S
Nd12   O10     2.409   1_455 S
C13    O7      1.260   1_545 S
C13    C33     1.568   1_545 S
C13    O35     1.233   .     S
C14    O36     1.276   .     S
O15    C33     1.233   .     S
O16    C34     1.276   .     S
O16    Nd32    2.567   .     S
O17    C19     1.251   .     S
O17    Nd32    2.539   1_455 S
O18    C20     1.265   .     S
C19    O3      1.248   1_455 S
C19    C20     1.544   .     S
Nd21   O22     2.490   1_665 S
Nd21   O23     2.453   1_655 S
Nd21   O24     2.418   .     S
Nd21   O25     2.520   1_655 S
Nd21   O26     2.535   1_565 S
Nd21   O27     2.648   1_565 S
Nd21   O28     2.498   .     S
Nd21   O29     2.489   1_665 S
Nd21   O30     2.455   1_665 S
O22    Nd21    2.490   1_445 S
O22    C31     1.220   .     S
O23    Nd21    2.453   1_455 S
O23    C39     1.248   1_455 S
O24    C40     1.247   .     S
O25    Nd21    2.520   1_455 S
O26    Nd21    2.535   1_545 S
O27    Nd21    2.648   1_545 S
O27    Nd32    2.516   .     S
O27    C33     1.260   1_545 S
O28    C11     1.258   1_554 S
O29    Nd21    2.489   1_445 S
O29    C34     1.290   .     S
O29    Nd32    2.577   .     S
O30    Nd21    2.455   1_445 S
O30    Nd32    2.409   1_455 S
O30    C34     1.278   .     S
C31    C11     1.557   1_444 S
C31    O8      1.258   1_554 S
Nd32   O35     2.471   .     S
Nd32   O36     2.443   .     S
Nd32   O37     2.643   .     S
Nd32   O38     2.447   .     S
Nd32   O17     2.539   1_655 S
Nd32   O30     2.409   1_655 S
C33    O27     1.260   1_565 S
C33    C13     1.568   1_565 S
O37    C39     1.251   .     S
O37    Nd12    2.539   1_655 S
O38    C40     1.265   .     S
C39    O23     1.248   1_655 S
C39    C40     1.544   .     S
