data_JICJIR_FSR
_audit_creation_date              2024-06-11
_audit_creation_method            'Materials Studio'
_symmetry_space_group_name_H-M    'P1'
_symmetry_Int_Tables_number       1
_symmetry_cell_setting            triclinic
loop_
_symmetry_equiv_pos_as_xyz
  x,y,z
_cell_length_a                    6.2723
_cell_length_b                    8.6246
_cell_length_c                    12.9484
_cell_angle_alpha                 105.3480
_cell_angle_beta                  90.4040
_cell_angle_gamma                 105.0580
loop_
_atom_site_label
_atom_site_type_symbol
_atom_site_fract_x
_atom_site_fract_y
_atom_site_fract_z
_atom_site_U_iso_or_equiv
_atom_site_adp_type
_atom_site_occupancy
O1     O     0.70050   0.33130   0.66210   0.00000  Uiso   1.00
Tb2    Tb    0.30922   0.16653   0.57501   0.00000  Uiso   1.00
O3     O     0.99560   0.11480   0.43320   0.00000  Uiso   1.00
O4     O     0.66090   0.06740   0.57500   0.00000  Uiso   1.00
O5     O     0.33920   0.03980   0.72220   0.00000  Uiso   1.00
O6     O     0.32840   0.47160   0.60280   0.00000  Uiso   1.00
O7     O     0.98680   0.23110   0.65930   0.00000  Uiso   1.00
O8     O     0.52130   0.29740   0.44440   0.00000  Uiso   1.00
C9     C     0.95860   0.19620   0.37180   0.00000  Uiso   1.00
C10    C     0.23150   0.89400   0.71950   0.00000  Uiso   1.00
Tb11   Tb    0.05796   0.52809   0.75763   0.00000  Uiso   1.00
C12    C     0.44600   0.55060   0.54600   0.00000  Uiso   1.00
C13    C     0.78410   0.20600   0.63170   0.00000  Uiso   1.00
O14    O     0.05750   0.34300   0.37470   0.00000  Uiso   1.00
O15    O     0.26360   0.81580   0.78330   0.00000  Uiso   1.00
O16    O     0.18480   0.65030   0.95290   0.00000  Uiso   1.00
O17    O     0.77120   0.67030   0.83710   0.00000  Uiso   1.00
O18    O     0.35650   0.39950   0.79470   0.00000  Uiso   1.00
O19    O     0.85800   0.36910   0.87930   0.00000  Uiso   1.00
C20    C     0.09410   0.58150   0.02150   0.00000  Uiso   1.00
H21    H     0.73000   0.70000   0.89900   0.00000  Uiso   1.00
H22    H     0.82000   0.76200   0.82100   0.00000  Uiso   1.00
H23    H     0.48600   0.46500   0.81000   0.00000  Uiso   1.00
H24    H     0.33900   0.34200   0.84000   0.00000  Uiso   1.00
O25    O     0.29950   0.66870   0.33790   0.00000  Uiso   1.00
Tb26   Tb    0.69078   0.83347   0.42499   0.00000  Uiso   1.00
O27    O     0.00440   0.88520   0.56680   0.00000  Uiso   1.00
O28    O     0.33910   0.93260   0.42500   0.00000  Uiso   1.00
O29    O     0.66080   0.96020   0.27780   0.00000  Uiso   1.00
O30    O     0.67160   0.52840   0.39720   0.00000  Uiso   1.00
O31    O     0.01320   0.76890   0.34070   0.00000  Uiso   1.00
O32    O     0.47870   0.70260   0.55560   0.00000  Uiso   1.00
C33    C     0.04140   0.80380   0.62820   0.00000  Uiso   1.00
C34    C     0.76850   0.10600   0.28050   0.00000  Uiso   1.00
Tb35   Tb    0.94204   0.47191   0.24237   0.00000  Uiso   1.00
C36    C     0.55400   0.44940   0.45400   0.00000  Uiso   1.00
C37    C     0.21590   0.79400   0.36830   0.00000  Uiso   1.00
O38    O     0.94250   0.65700   0.62530   0.00000  Uiso   1.00
O39    O     0.73640   0.18420   0.21670   0.00000  Uiso   1.00
O40    O     0.81520   0.34970   0.04710   0.00000  Uiso   1.00
O41    O     0.22880   0.32970   0.16290   0.00000  Uiso   1.00
O42    O     0.64350   0.60050   0.20530   0.00000  Uiso   1.00
O43    O     0.14200   0.63090   0.12070   0.00000  Uiso   1.00
C44    C     0.90590   0.41850   0.97850   0.00000  Uiso   1.00
H45    H     0.27000   0.30000   0.10100   0.00000  Uiso   1.00
H46    H     0.18000   0.23800   0.17900   0.00000  Uiso   1.00
H47    H     0.51400   0.53500   0.19000   0.00000  Uiso   1.00
H48    H     0.66100   0.65800   0.16000   0.00000  Uiso   1.00
loop_
_geom_bond_atom_site_label_1
_geom_bond_atom_site_label_2
_geom_bond_distance
_geom_bond_site_symmetry_2
_ccdc_geom_bond_type
O1     Tb2     2.572   .     S
O1     Tb11    2.512   1_655 S
O1     C13     1.292   .     S
Tb2    O3      2.549   1_455 S
Tb2    O4      2.564   .     S
Tb2    O5      2.463   .     S
Tb2    O6      2.530   .     S
Tb2    O7      2.426   1_455 S
Tb2    O8      2.483   .     S
Tb2    O27     2.647   1_545 S
Tb2    O28     2.451   1_545 S
O3     Tb2     2.549   1_655 S
O3     C9      1.248   .     S
O3     Tb26    2.647   1_545 S
O4     Tb26    2.451   1_545 S
O4     C13     1.270   .     S
O5     C10     1.255   1_545 S
O6     Tb11    2.664   .     S
O6     C12     1.249   .     S
O7     Tb2     2.426   1_655 S
O7     C13     1.265   .     S
O7     Tb11    2.460   1_655 S
O8     C36     1.245   .     S
C9     O14     1.247   1_655 S
C9     C34     1.561   .     S
C10    O5      1.255   1_565 S
C10    O15     1.241   .     S
C10    C33     1.561   .     S
Tb11   O16     2.502   .     S
Tb11   O17     2.510   1_455 S
Tb11   O18     2.513   .     S
Tb11   O19     2.493   1_455 S
Tb11   O1      2.512   1_455 S
Tb11   O38     2.471   1_455 S
Tb11   O15     2.414   .     S
Tb11   O7      2.460   1_455 S
C12    O32     1.245   .     S
C12    C36     1.552   .     S
O14    C9      1.247   1_455 S
O14    Tb35    2.471   1_455 S
O16    C20     1.255   1_556 S
O17    Tb11    2.510   1_655 S
O17    H21     0.839   .     S
O17    H22     0.851   .     S
O18    H23     0.847   .     S
O18    H24     0.854   .     S
O19    Tb11    2.493   1_655 S
O19    C44     1.249   .     S
C20    O16     1.255   1_554 S
C20    O43     1.249   .     S
C20    C44     1.547   1_454 S
O25    Tb26    2.572   .     S
O25    Tb35    2.512   1_455 S
O25    C37     1.292   .     S
Tb26   O27     2.549   1_655 S
Tb26   O28     2.564   .     S
Tb26   O29     2.463   .     S
Tb26   O30     2.530   .     S
Tb26   O31     2.426   1_655 S
Tb26   O32     2.483   .     S
Tb26   O3      2.647   1_565 S
Tb26   O4      2.451   1_565 S
O27    Tb26    2.549   1_455 S
O27    C33     1.248   .     S
O27    Tb2     2.647   1_565 S
O28    Tb2     2.451   1_565 S
O28    C37     1.270   .     S
O29    C34     1.255   1_565 S
O30    Tb35    2.664   .     S
O30    C36     1.249   .     S
O31    Tb26    2.426   1_455 S
O31    C37     1.265   .     S
O31    Tb35    2.460   1_455 S
C33    O38     1.247   1_455 S
C34    O29     1.255   1_545 S
C34    O39     1.241   .     S
Tb35   O40     2.502   .     S
Tb35   O41     2.510   1_655 S
Tb35   O42     2.513   .     S
Tb35   O43     2.493   1_655 S
Tb35   O25     2.512   1_655 S
Tb35   O14     2.471   1_655 S
Tb35   O39     2.414   .     S
Tb35   O31     2.460   1_655 S
O38    C33     1.247   1_655 S
O38    Tb11    2.471   1_655 S
O40    C44     1.255   1_554 S
O41    Tb35    2.510   1_455 S
O41    H45     0.839   .     S
O41    H46     0.851   .     S
O42    H47     0.847   .     S
O42    H48     0.854   .     S
O43    Tb35    2.493   1_455 S
C44    O40     1.255   1_556 S
C44    C20     1.547   1_656 S
