data_JICJEN_FSR
_audit_creation_date              2024-06-11
_audit_creation_method            'Materials Studio'
_symmetry_space_group_name_H-M    'P1'
_symmetry_Int_Tables_number       1
_symmetry_cell_setting            triclinic
loop_
_symmetry_equiv_pos_as_xyz
  x,y,z
_cell_length_a                    6.2596
_cell_length_b                    8.6136
_cell_length_c                    12.9309
_cell_angle_alpha                 105.4300
_cell_angle_beta                  90.4220
_cell_angle_gamma                 105.0690
loop_
_atom_site_label
_atom_site_type_symbol
_atom_site_fract_x
_atom_site_fract_y
_atom_site_fract_z
_atom_site_U_iso_or_equiv
_atom_site_adp_type
_atom_site_occupancy
Pr1    Pr    0.44229   0.97171   0.24225   0.00000  Uiso   1.00
O2     O     0.31620   0.84870   0.04750   0.00000  Uiso   1.00
O3     O     0.13960   0.10150   0.20460   0.00000  Uiso   1.00
O4     O     0.72790   0.82760   0.16220   0.00000  Uiso   1.00
O5     O     0.17370   0.02840   0.39570   0.00000  Uiso   1.00
O6     O     0.80000   0.16780   0.33790   0.00000  Uiso   1.00
O7     O     0.50970   0.26890   0.34080   0.00000  Uiso   1.00
O8     O     0.35750   0.86670   0.87860   0.00000  Uiso   1.00
O9     O     0.55640   0.84320   0.37380   0.00000  Uiso   1.00
O10    O     0.23390   0.68320   0.21730   0.00000  Uiso   1.00
C11    C     0.40400   0.91900   0.97950   0.00000  Uiso   1.00
Pr12   Pr    0.19086   0.33350   0.42496   0.00000  Uiso   1.00
C13    C     0.05510   0.94810   0.45580   0.00000  Uiso   1.00
C14    C     0.71400   0.29450   0.36980   0.00000  Uiso   1.00
O15    O     0.01910   0.79750   0.44470   0.00000  Uiso   1.00
O16    O     0.49390   0.61500   0.43450   0.00000  Uiso   1.00
O17    O     0.16660   0.45740   0.27720   0.00000  Uiso   1.00
O18    O     0.84070   0.43370   0.42500   0.00000  Uiso   1.00
C19    C     0.45780   0.69790   0.37250   0.00000  Uiso   1.00
C20    C     0.26800   0.60560   0.28190   0.00000  Uiso   1.00
Pr21   Pr    0.55771   0.02829   0.75775   0.00000  Uiso   1.00
O22    O     0.68380   0.15130   0.95250   0.00000  Uiso   1.00
O23    O     0.86040   0.89850   0.79540   0.00000  Uiso   1.00
O24    O     0.27210   0.17240   0.83780   0.00000  Uiso   1.00
O25    O     0.82630   0.97160   0.60430   0.00000  Uiso   1.00
O26    O     0.20000   0.83220   0.66210   0.00000  Uiso   1.00
O27    O     0.49030   0.73110   0.65920   0.00000  Uiso   1.00
O28    O     0.64250   0.13330   0.12140   0.00000  Uiso   1.00
O29    O     0.44360   0.15680   0.62620   0.00000  Uiso   1.00
O30    O     0.76610   0.31680   0.78270   0.00000  Uiso   1.00
C31    C     0.59600   0.08100   0.02050   0.00000  Uiso   1.00
Pr32   Pr    0.80914   0.66650   0.57504   0.00000  Uiso   1.00
C33    C     0.94490   0.05190   0.54420   0.00000  Uiso   1.00
C34    C     0.28600   0.70550   0.63020   0.00000  Uiso   1.00
O35    O     0.98090   0.20250   0.55530   0.00000  Uiso   1.00
O36    O     0.50610   0.38500   0.56550   0.00000  Uiso   1.00
O37    O     0.83340   0.54260   0.72280   0.00000  Uiso   1.00
O38    O     0.15930   0.56630   0.57500   0.00000  Uiso   1.00
C39    C     0.54220   0.30210   0.62750   0.00000  Uiso   1.00
C40    C     0.73200   0.39440   0.71810   0.00000  Uiso   1.00
loop_
_geom_bond_atom_site_label_1
_geom_bond_atom_site_label_2
_geom_bond_distance
_geom_bond_site_symmetry_2
_ccdc_geom_bond_type
Pr1    O2      2.491   .     S
Pr1    O3      2.541   1_565 S
Pr1    O4      2.511   .     S
Pr1    O5      2.639   1_565 S
Pr1    O6      2.505   1_565 S
Pr1    O7      2.460   1_565 S
Pr1    O28     2.496   1_565 S
Pr1    O9      2.454   .     S
Pr1    O10     2.421   .     S
O2     C11     1.249   1_554 S
O3     Pr1     2.541   1_545 S
O5     Pr1     2.639   1_545 S
O5     Pr12    2.527   .     S
O5     C13     1.289   1_545 S
O6     Pr1     2.505   1_545 S
O6     C14     1.312   .     S
O6     Pr12    2.565   1_655 S
O7     Pr1     2.460   1_545 S
O7     Pr12    2.401   .     S
O7     C14     1.276   .     S
O8     C11     1.266   .     S
O8     Pr21    2.496   1_565 S
O9     C19     1.239   .     S
O10    C20     1.249   .     S
C11    O2      1.249   1_556 S
C11    C31     1.548   1_566 S
Pr12   O16     2.634   .     S
Pr12   O17     2.445   .     S
Pr12   O35     2.473   1_455 S
Pr12   O6      2.565   1_455 S
Pr12   O36     2.541   .     S
Pr12   O18     2.556   1_455 S
Pr12   O38     2.442   .     S
C13    O5      1.289   1_565 S
C13    O15     1.226   .     S
C13    C33     1.540   1_465 S
C14    O18     1.272   .     S
O15    Pr32    2.473   1_455 S
O16    C19     1.261   .     S
O16    Pr32    2.541   .     S
O17    C20     1.254   .     S
O18    Pr12    2.556   1_655 S
O18    Pr32    2.442   .     S
C19    C20     1.552   .     S
Pr21   O22     2.491   .     S
Pr21   O23     2.541   1_545 S
Pr21   O24     2.511   .     S
Pr21   O25     2.639   1_545 S
Pr21   O26     2.505   1_545 S
Pr21   O27     2.460   1_545 S
Pr21   O8      2.496   1_545 S
Pr21   O29     2.454   .     S
Pr21   O30     2.421   .     S
O22    C31     1.249   1_556 S
O23    Pr21    2.541   1_565 S
O25    Pr21    2.639   1_565 S
O25    Pr32    2.527   .     S
O25    C33     1.289   1_565 S
O26    Pr21    2.505   1_565 S
O26    C34     1.312   .     S
O26    Pr32    2.565   1_455 S
O27    Pr21    2.460   1_565 S
O27    Pr32    2.401   .     S
O27    C34     1.276   .     S
O28    C31     1.266   .     S
O28    Pr1     2.496   1_545 S
O29    C39     1.239   .     S
O30    C40     1.249   .     S
C31    O22     1.249   1_554 S
C31    C11     1.548   1_544 S
Pr32   O36     2.634   .     S
Pr32   O37     2.445   .     S
Pr32   O15     2.473   1_655 S
Pr32   O26     2.565   1_655 S
Pr32   O38     2.556   1_655 S
C33    O25     1.289   1_545 S
C33    O35     1.226   .     S
C33    C13     1.540   1_645 S
C34    O38     1.272   .     S
O35    Pr12    2.473   1_655 S
O36    C39     1.261   .     S
O37    C40     1.254   .     S
O38    Pr32    2.556   1_455 S
C39    C40     1.552   .     S
