data_JUNBUR_FSR
_audit_creation_date              2024-06-11
_audit_creation_method            'Materials Studio'
_symmetry_space_group_name_H-M    'P1'
_symmetry_Int_Tables_number       1
_symmetry_cell_setting            triclinic
loop_
_symmetry_equiv_pos_as_xyz
  x,y,z
_cell_length_a                    10.2400
_cell_length_b                    13.7720
_cell_length_c                    16.7000
_cell_angle_alpha                 90.0000
_cell_angle_beta                  127.0460
_cell_angle_gamma                 90.0000
loop_
_atom_site_label
_atom_site_type_symbol
_atom_site_fract_x
_atom_site_fract_y
_atom_site_fract_z
_atom_site_U_iso_or_equiv
_atom_site_adp_type
_atom_site_occupancy
Cd1    Cd    0.58220   0.42413   0.93814   0.00000  Uiso   1.00
O2     O     0.68050   0.54580   0.05330   0.00000  Uiso   1.00
O3     O     0.44030   0.55230   0.82510   0.00000  Uiso   1.00
H4     H     0.51370   0.58760   0.82930   0.00000  Uiso   1.00
H5     H     0.37700   0.57910   0.81980   0.00000  Uiso   1.00
O6     O     0.66660   0.64800   0.14840   0.00000  Uiso   1.00
O7     O     0.20080   0.54710   0.07730   0.00000  Uiso   1.00
O8     O     0.38760   0.65690   0.17430   0.00000  Uiso   1.00
O9     O     0.36600   0.83320   0.42730   0.00000  Uiso   1.00
O10    O     0.17110   0.79410   0.44080   0.00000  Uiso   1.00
C11    C     0.74000   0.60960   0.11790   0.00000  Uiso   1.00
C12    C     0.91280   0.64400   0.16610   0.00000  Uiso   1.00
C13    C     0.99850   0.61520   0.13050   0.00000  Uiso   1.00
H14    H     0.94850   0.57530   0.07440   0.00000  Uiso   1.00
C15    C     0.15820   0.64540   0.17800   0.00000  Uiso   1.00
C16    C     0.25350   0.61450   0.14020   0.00000  Uiso   1.00
C17    C     0.23310   0.70390   0.26090   0.00000  Uiso   1.00
H18    H     0.33910   0.72590   0.29140   0.00000  Uiso   1.00
C19    C     0.14840   0.73050   0.29990   0.00000  Uiso   1.00
C20    C     0.23470   0.79030   0.39570   0.00000  Uiso   1.00
C21    C     0.99100   0.70110   0.25340   0.00000  Uiso   1.00
H22    H     0.93550   0.71880   0.27930   0.00000  Uiso   1.00
Cd23   Cd    0.41780   0.92413   0.56186   0.00000  Uiso   1.00
O24    O     0.31950   0.04580   0.44670   0.00000  Uiso   1.00
O25    O     0.55970   0.05230   0.67490   0.00000  Uiso   1.00
H26    H     0.48630   0.08760   0.67070   0.00000  Uiso   1.00
H27    H     0.62300   0.07910   0.68020   0.00000  Uiso   1.00
O28    O     0.33340   0.14800   0.35160   0.00000  Uiso   1.00
O29    O     0.79920   0.04710   0.42270   0.00000  Uiso   1.00
O30    O     0.61240   0.15690   0.32570   0.00000  Uiso   1.00
O31    O     0.63400   0.33320   0.07270   0.00000  Uiso   1.00
O32    O     0.82890   0.29410   0.05920   0.00000  Uiso   1.00
C33    C     0.26000   0.10960   0.38210   0.00000  Uiso   1.00
C34    C     0.08720   0.14400   0.33390   0.00000  Uiso   1.00
C35    C     0.00150   0.11520   0.36950   0.00000  Uiso   1.00
H36    H     0.05150   0.07530   0.42560   0.00000  Uiso   1.00
C37    C     0.84180   0.14540   0.32200   0.00000  Uiso   1.00
C38    C     0.74650   0.11450   0.35980   0.00000  Uiso   1.00
C39    C     0.76690   0.20390   0.23910   0.00000  Uiso   1.00
H40    H     0.66090   0.22590   0.20860   0.00000  Uiso   1.00
C41    C     0.85160   0.23050   0.20010   0.00000  Uiso   1.00
C42    C     0.76530   0.29030   0.10430   0.00000  Uiso   1.00
C43    C     0.00900   0.20110   0.24660   0.00000  Uiso   1.00
H44    H     0.06450   0.21880   0.22070   0.00000  Uiso   1.00
Cd45   Cd    0.41780   0.57587   0.06186   0.00000  Uiso   1.00
O46    O     0.31950   0.45420   0.94670   0.00000  Uiso   1.00
O47    O     0.55970   0.44770   0.17490   0.00000  Uiso   1.00
H48    H     0.48630   0.41240   0.17070   0.00000  Uiso   1.00
H49    H     0.62300   0.42090   0.18020   0.00000  Uiso   1.00
O50    O     0.33340   0.35200   0.85160   0.00000  Uiso   1.00
O51    O     0.79920   0.45290   0.92270   0.00000  Uiso   1.00
O52    O     0.61240   0.34310   0.82570   0.00000  Uiso   1.00
O53    O     0.63400   0.16680   0.57270   0.00000  Uiso   1.00
O54    O     0.82890   0.20590   0.55920   0.00000  Uiso   1.00
C55    C     0.26000   0.39040   0.88210   0.00000  Uiso   1.00
C56    C     0.08720   0.35600   0.83390   0.00000  Uiso   1.00
C57    C     0.00150   0.38480   0.86950   0.00000  Uiso   1.00
H58    H     0.05150   0.42470   0.92560   0.00000  Uiso   1.00
C59    C     0.84180   0.35460   0.82200   0.00000  Uiso   1.00
C60    C     0.74650   0.38550   0.85980   0.00000  Uiso   1.00
C61    C     0.76690   0.29610   0.73910   0.00000  Uiso   1.00
H62    H     0.66090   0.27410   0.70860   0.00000  Uiso   1.00
C63    C     0.85160   0.26950   0.70010   0.00000  Uiso   1.00
C64    C     0.76530   0.20970   0.60430   0.00000  Uiso   1.00
C65    C     0.00900   0.29890   0.74660   0.00000  Uiso   1.00
H66    H     0.06450   0.28120   0.72070   0.00000  Uiso   1.00
Cd67   Cd    0.58220   0.07587   0.43814   0.00000  Uiso   1.00
O68    O     0.68050   0.95420   0.55330   0.00000  Uiso   1.00
O69    O     0.44030   0.94770   0.32510   0.00000  Uiso   1.00
H70    H     0.51370   0.91240   0.32930   0.00000  Uiso   1.00
H71    H     0.37700   0.92090   0.31980   0.00000  Uiso   1.00
O72    O     0.66660   0.85200   0.64840   0.00000  Uiso   1.00
O73    O     0.20080   0.95290   0.57730   0.00000  Uiso   1.00
O74    O     0.38760   0.84310   0.67430   0.00000  Uiso   1.00
O75    O     0.36600   0.66680   0.92730   0.00000  Uiso   1.00
O76    O     0.17110   0.70590   0.94080   0.00000  Uiso   1.00
C77    C     0.74000   0.89040   0.61790   0.00000  Uiso   1.00
C78    C     0.91280   0.85600   0.66610   0.00000  Uiso   1.00
C79    C     0.99850   0.88480   0.63050   0.00000  Uiso   1.00
H80    H     0.94850   0.92470   0.57440   0.00000  Uiso   1.00
C81    C     0.15820   0.85460   0.67800   0.00000  Uiso   1.00
C82    C     0.25350   0.88550   0.64020   0.00000  Uiso   1.00
C83    C     0.23310   0.79610   0.76090   0.00000  Uiso   1.00
H84    H     0.33910   0.77410   0.79140   0.00000  Uiso   1.00
C85    C     0.14840   0.76950   0.79990   0.00000  Uiso   1.00
C86    C     0.23470   0.70970   0.89570   0.00000  Uiso   1.00
C87    C     0.99100   0.79890   0.75340   0.00000  Uiso   1.00
H88    H     0.93550   0.78120   0.77930   0.00000  Uiso   1.00
loop_
_geom_bond_atom_site_label_1
_geom_bond_atom_site_label_2
_geom_bond_distance
_geom_bond_site_symmetry_2
_ccdc_geom_bond_type
Cd1    O2      2.278   1_556 S
Cd1    O3      2.342   .     S
Cd1    O46     2.809   .     S
Cd1    O50     2.265   .     S
Cd1    O51     2.419   .     S
Cd1    O52     2.359   .     S
Cd1    O31     2.337   1_556 S
Cd1    O32     2.743   1_556 S
O2     Cd1     2.278   1_554 S
O2     C11     1.231   .     S
O2     Cd45    2.809   .     S
O3     H4      0.862   .     S
O3     H5      0.704   .     S
O6     C11     1.251   .     S
O6     Cd45    2.265   .     S
O7     C16     1.254   .     S
O7     Cd45    2.419   .     S
O8     C16     1.268   .     S
O8     Cd45    2.359   .     S
O9     C20     1.257   .     S
O9     Cd23    2.337   .     S
O10    C20     1.259   .     S
O10    Cd23    2.743   .     S
C11    C12     1.512   .     S
C12    C13     1.382   .     S
C12    C21     1.407   .     S
C13    H14     0.929   .     S
C13    C15     1.383   1_655 S
C15    C13     1.383   1_455 S
C15    C16     1.508   .     S
C15    C17     1.369   .     S
C17    H18     0.929   .     S
C17    C19     1.411   .     S
C19    C20     1.522   .     S
C19    C21     1.363   1_455 S
C21    H22     0.930   .     S
C21    C19     1.363   1_655 S
Cd23   O24     2.278   1_565 S
Cd23   O25     2.342   1_565 S
Cd23   O68     2.809   .     S
Cd23   O72     2.265   .     S
Cd23   O73     2.419   .     S
Cd23   O74     2.359   .     S
O24    Cd23    2.278   1_545 S
O24    C33     1.231   .     S
O24    Cd67    2.809   .     S
O25    Cd23    2.342   1_545 S
O25    H26     0.862   .     S
O25    H27     0.704   .     S
O28    C33     1.251   .     S
O28    Cd67    2.265   .     S
O29    C38     1.254   .     S
O29    Cd67    2.419   .     S
O30    C38     1.268   .     S
O30    Cd67    2.359   .     S
O31    C42     1.257   .     S
O31    Cd1     2.337   1_554 S
O32    C42     1.259   .     S
O32    Cd1     2.743   1_554 S
C33    C34     1.512   .     S
C34    C35     1.382   .     S
C34    C43     1.407   .     S
C35    H36     0.929   .     S
C35    C37     1.383   1_455 S
C37    C35     1.383   1_655 S
C37    C38     1.508   .     S
C37    C39     1.369   .     S
C39    H40     0.929   .     S
C39    C41     1.411   .     S
C41    C42     1.522   .     S
C41    C43     1.363   1_655 S
C43    H44     0.930   .     S
C43    C41     1.363   1_455 S
Cd45   O46     2.278   1_554 S
Cd45   O47     2.342   .     S
Cd45   O75     2.337   1_554 S
Cd45   O76     2.743   1_554 S
O46    Cd45    2.278   1_556 S
O46    C55     1.231   .     S
O47    H48     0.862   .     S
O47    H49     0.704   .     S
O50    C55     1.251   .     S
O51    C60     1.254   .     S
O52    C60     1.268   .     S
O53    C64     1.257   .     S
O53    Cd67    2.337   .     S
O54    C64     1.259   .     S
O54    Cd67    2.743   .     S
C55    C56     1.512   .     S
C56    C57     1.382   .     S
C56    C65     1.407   .     S
C57    H58     0.929   .     S
C57    C59     1.383   1_455 S
C59    C57     1.383   1_655 S
C59    C60     1.508   .     S
C59    C61     1.369   .     S
C61    H62     0.929   .     S
C61    C63     1.411   .     S
C63    C64     1.522   .     S
C63    C65     1.363   1_655 S
C65    H66     0.930   .     S
C65    C63     1.363   1_455 S
Cd67   O68     2.278   1_545 S
Cd67   O69     2.342   1_545 S
O68    Cd67    2.278   1_565 S
O68    C77     1.231   .     S
O69    Cd67    2.342   1_565 S
O69    H70     0.862   .     S
O69    H71     0.704   .     S
O72    C77     1.251   .     S
O73    C82     1.254   .     S
O74    C82     1.268   .     S
O75    C86     1.257   .     S
O75    Cd45    2.337   1_556 S
O76    C86     1.259   .     S
O76    Cd45    2.743   1_556 S
C77    C78     1.512   .     S
C78    C79     1.382   .     S
C78    C87     1.407   .     S
C79    H80     0.929   .     S
C79    C81     1.383   1_655 S
C81    C79     1.383   1_455 S
C81    C82     1.508   .     S
C81    C83     1.369   .     S
C83    H84     0.929   .     S
C83    C85     1.411   .     S
C85    C86     1.522   .     S
C85    C87     1.363   1_455 S
C87    H88     0.930   .     S
C87    C85     1.363   1_655 S
