data_JUNBOL_FSR
_audit_creation_date              2024-06-11
_audit_creation_method            'Materials Studio'
_symmetry_space_group_name_H-M    'P1'
_symmetry_Int_Tables_number       1
_symmetry_cell_setting            triclinic
loop_
_symmetry_equiv_pos_as_xyz
  x,y,z
_cell_length_a                    13.9260
_cell_length_b                    16.5900
_cell_length_c                    16.1810
_cell_angle_alpha                 90.0000
_cell_angle_beta                  110.2960
_cell_angle_gamma                 90.0000
loop_
_atom_site_label
_atom_site_type_symbol
_atom_site_fract_x
_atom_site_fract_y
_atom_site_fract_z
_atom_site_U_iso_or_equiv
_atom_site_adp_type
_atom_site_occupancy
Cd1    Cd    0.29152   0.49907   0.14202   0.00000  Uiso   1.00
Cd2    Cd    0.41891   0.50416   0.37350   0.00000  Uiso   1.00
O3     O     0.26894   0.57761   0.31720   0.00000  Uiso   1.00
O4     O     0.16677   0.55185   0.17982   0.00000  Uiso   1.00
O5     O     0.83909   0.62677   0.36021   0.00000  Uiso   1.00
O6     O     0.69717   0.90443   0.23198   0.00000  Uiso   1.00
O7     O     0.54441   0.87243   0.13729   0.00000  Uiso   1.00
O8     O     0.47610   0.51847   0.25054   0.00000  Uiso   1.00
O9     O     0.38976   0.61400   0.16068   0.00000  Uiso   1.00
O10    O     0.34638   0.39060   0.08587   0.00000  Uiso   1.00
O11    O     0.17953   0.39858   0.05386   0.00000  Uiso   1.00
O12    O     0.49016   0.11780   0.08315   0.00000  Uiso   1.00
O13    O     0.39290   0.01991   0.00380   0.00000  Uiso   1.00
O14    O     0.03597   0.14084   0.89910   0.00000  Uiso   1.00
O15    O     0.93420   0.09200   0.49139   0.00000  Uiso   1.00
H16    H     0.90450   0.08210   0.43910   0.00000  Uiso   1.00
O17    O     0.77977   0.06690   0.49827   0.00000  Uiso   1.00
C18    C     0.18100   0.57138   0.25870   0.00000  Uiso   1.00
C19    C     0.09850   0.59620   0.37090   0.00000  Uiso   1.00
H20    H     0.16260   0.59120   0.41450   0.00000  Uiso   1.00
C21    C     0.01440   0.60980   0.39500   0.00000  Uiso   1.00
H22    H     0.02140   0.61280   0.45420   0.00000  Uiso   1.00
C23    C     0.92000   0.61870   0.33050   0.00000  Uiso   1.00
C24    C     0.90930   0.61480   0.24260   0.00000  Uiso   1.00
H25    H     0.84540   0.62240   0.19930   0.00000  Uiso   1.00
C26    C     0.99360   0.59970   0.21910   0.00000  Uiso   1.00
H27    H     0.98630   0.59590   0.15980   0.00000  Uiso   1.00
C28    C     0.09000   0.58990   0.28360   0.00000  Uiso   1.00
C29    C     0.74540   0.65680   0.30370   0.00000  Uiso   1.00
C30    C     0.73700   0.73690   0.27790   0.00000  Uiso   1.00
H31    H     0.79440   0.77010   0.29450   0.00000  Uiso   1.00
C32    C     0.64180   0.76690   0.22710   0.00000  Uiso   1.00
C33    C     0.55710   0.71700   0.20540   0.00000  Uiso   1.00
H34    H     0.49350   0.73680   0.17050   0.00000  Uiso   1.00
C35    C     0.56570   0.63750   0.23500   0.00000  Uiso   1.00
C36    C     0.66130   0.60690   0.28400   0.00000  Uiso   1.00
H37    H     0.66850   0.55360   0.30310   0.00000  Uiso   1.00
C38    C     0.62800   0.85360   0.19800   0.00000  Uiso   1.00
C39    C     0.47100   0.58720   0.21490   0.00000  Uiso   1.00
C40    C     0.25750   0.36210   0.05270   0.00000  Uiso   1.00
C41    C     0.24440   0.27910   0.01350   0.00000  Uiso   1.00
C42    C     0.14680   0.24930   0.96760   0.00000  Uiso   1.00
H43    H     0.08980   0.28230   0.95650   0.00000  Uiso   1.00
C44    C     0.13550   0.17040   0.93870   0.00000  Uiso   1.00
C45    C     0.21910   0.11920   0.95610   0.00000  Uiso   1.00
H46    H     0.21030   0.06610   0.93650   0.00000  Uiso   1.00
C47    C     0.31620   0.14870   0.00342   0.00000  Uiso   1.00
C48    C     0.32870   0.22870   0.03070   0.00000  Uiso   1.00
H49    H     0.39400   0.24860   0.06060   0.00000  Uiso   1.00
C50    C     0.40540   0.09230   0.03070   0.00000  Uiso   1.00
C51    C     0.99980   0.12860   0.80880   0.00000  Uiso   1.00
C52    C     0.89750   0.10780   0.77170   0.00000  Uiso   1.00
H53    H     0.85720   0.10290   0.80690   0.00000  Uiso   1.00
C54    C     0.85620   0.09470   0.68280   0.00000  Uiso   1.00
H55    H     0.78760   0.08030   0.65780   0.00000  Uiso   1.00
C56    C     0.91490   0.10250   0.62940   0.00000  Uiso   1.00
C57    C     0.01740   0.12170   0.66790   0.00000  Uiso   1.00
H58    H     0.05830   0.12540   0.63330   0.00000  Uiso   1.00
C59    C     0.05930   0.13560   0.75730   0.00000  Uiso   1.00
H60    H     0.12800   0.14970   0.78270   0.00000  Uiso   1.00
C61    C     0.86940   0.08570   0.53410   0.00000  Uiso   1.00
Cd62   Cd    0.70848   0.99907   0.35798   0.00000  Uiso   1.00
Cd63   Cd    0.58109   0.00416   0.12649   0.00000  Uiso   1.00
O64    O     0.73106   0.07761   0.18280   0.00000  Uiso   1.00
O65    O     0.83323   0.05185   0.32018   0.00000  Uiso   1.00
O66    O     0.16091   0.12677   0.13979   0.00000  Uiso   1.00
O67    O     0.30283   0.40443   0.26802   0.00000  Uiso   1.00
O68    O     0.45559   0.37243   0.36271   0.00000  Uiso   1.00
O69    O     0.52390   0.01847   0.24946   0.00000  Uiso   1.00
O70    O     0.61024   0.11400   0.33932   0.00000  Uiso   1.00
O71    O     0.65362   0.89060   0.41413   0.00000  Uiso   1.00
O72    O     0.82047   0.89858   0.44614   0.00000  Uiso   1.00
O73    O     0.50984   0.61780   0.41685   0.00000  Uiso   1.00
O74    O     0.60710   0.51991   0.49620   0.00000  Uiso   1.00
O75    O     0.96403   0.64084   0.60090   0.00000  Uiso   1.00
O76    O     0.06580   0.59200   0.00861   0.00000  Uiso   1.00
H77    H     0.09550   0.58210   0.06090   0.00000  Uiso   1.00
O78    O     0.22023   0.56690   0.00173   0.00000  Uiso   1.00
C79    C     0.81900   0.07138   0.24130   0.00000  Uiso   1.00
C80    C     0.90150   0.09620   0.12910   0.00000  Uiso   1.00
H81    H     0.83740   0.09120   0.08550   0.00000  Uiso   1.00
C82    C     0.98560   0.10980   0.10500   0.00000  Uiso   1.00
H83    H     0.97860   0.11280   0.04580   0.00000  Uiso   1.00
C84    C     0.08000   0.11870   0.16950   0.00000  Uiso   1.00
C85    C     0.09070   0.11480   0.25740   0.00000  Uiso   1.00
H86    H     0.15460   0.12240   0.30070   0.00000  Uiso   1.00
C87    C     0.00640   0.09970   0.28090   0.00000  Uiso   1.00
H88    H     0.01370   0.09590   0.34020   0.00000  Uiso   1.00
C89    C     0.91000   0.08990   0.21640   0.00000  Uiso   1.00
C90    C     0.25460   0.15680   0.19630   0.00000  Uiso   1.00
C91    C     0.26300   0.23690   0.22210   0.00000  Uiso   1.00
H92    H     0.20560   0.27010   0.20550   0.00000  Uiso   1.00
C93    C     0.35820   0.26690   0.27290   0.00000  Uiso   1.00
C94    C     0.44290   0.21700   0.29460   0.00000  Uiso   1.00
H95    H     0.50650   0.23680   0.32950   0.00000  Uiso   1.00
C96    C     0.43430   0.13750   0.26500   0.00000  Uiso   1.00
C97    C     0.33870   0.10690   0.21600   0.00000  Uiso   1.00
H98    H     0.33150   0.05360   0.19690   0.00000  Uiso   1.00
C99    C     0.37200   0.35360   0.30200   0.00000  Uiso   1.00
C100   C     0.52900   0.08720   0.28510   0.00000  Uiso   1.00
C101   C     0.74250   0.86210   0.44730   0.00000  Uiso   1.00
C102   C     0.75560   0.77910   0.48650   0.00000  Uiso   1.00
C103   C     0.85320   0.74930   0.53240   0.00000  Uiso   1.00
H104   H     0.91020   0.78230   0.54350   0.00000  Uiso   1.00
C105   C     0.86450   0.67040   0.56130   0.00000  Uiso   1.00
C106   C     0.78090   0.61920   0.54390   0.00000  Uiso   1.00
H107   H     0.78970   0.56610   0.56350   0.00000  Uiso   1.00
C108   C     0.68380   0.64870   0.49658   0.00000  Uiso   1.00
C109   C     0.67130   0.72870   0.46930   0.00000  Uiso   1.00
H110   H     0.60600   0.74860   0.43940   0.00000  Uiso   1.00
C111   C     0.59460   0.59230   0.46930   0.00000  Uiso   1.00
C112   C     0.00020   0.62860   0.69120   0.00000  Uiso   1.00
C113   C     0.10250   0.60780   0.72830   0.00000  Uiso   1.00
H114   H     0.14280   0.60290   0.69310   0.00000  Uiso   1.00
C115   C     0.14380   0.59470   0.81720   0.00000  Uiso   1.00
H116   H     0.21240   0.58030   0.84220   0.00000  Uiso   1.00
C117   C     0.08510   0.60250   0.87060   0.00000  Uiso   1.00
C118   C     0.98260   0.62170   0.83210   0.00000  Uiso   1.00
H119   H     0.94170   0.62540   0.86670   0.00000  Uiso   1.00
C120   C     0.94070   0.63560   0.74270   0.00000  Uiso   1.00
H121   H     0.87200   0.64970   0.71730   0.00000  Uiso   1.00
C122   C     0.13060   0.58570   0.96590   0.00000  Uiso   1.00
Cd123  Cd    0.70848   0.50093   0.85798   0.00000  Uiso   1.00
Cd124  Cd    0.58109   0.49584   0.62649   0.00000  Uiso   1.00
O125   O     0.73106   0.42239   0.68280   0.00000  Uiso   1.00
O126   O     0.83323   0.44815   0.82018   0.00000  Uiso   1.00
O127   O     0.16091   0.37323   0.63979   0.00000  Uiso   1.00
O128   O     0.30283   0.09557   0.76802   0.00000  Uiso   1.00
O129   O     0.45559   0.12757   0.86271   0.00000  Uiso   1.00
O130   O     0.52390   0.48153   0.74946   0.00000  Uiso   1.00
O131   O     0.61024   0.38600   0.83932   0.00000  Uiso   1.00
O132   O     0.65362   0.60940   0.91413   0.00000  Uiso   1.00
O133   O     0.82047   0.60142   0.94614   0.00000  Uiso   1.00
O134   O     0.50984   0.88220   0.91685   0.00000  Uiso   1.00
O135   O     0.60710   0.98009   0.99620   0.00000  Uiso   1.00
O136   O     0.96403   0.85916   0.10090   0.00000  Uiso   1.00
O137   O     0.06580   0.90800   0.50861   0.00000  Uiso   1.00
H138   H     0.09550   0.91790   0.56090   0.00000  Uiso   1.00
O139   O     0.22023   0.93310   0.50173   0.00000  Uiso   1.00
C140   C     0.81900   0.42862   0.74130   0.00000  Uiso   1.00
C141   C     0.90150   0.40380   0.62910   0.00000  Uiso   1.00
H142   H     0.83740   0.40880   0.58550   0.00000  Uiso   1.00
C143   C     0.98560   0.39020   0.60500   0.00000  Uiso   1.00
H144   H     0.97860   0.38720   0.54580   0.00000  Uiso   1.00
C145   C     0.08000   0.38130   0.66950   0.00000  Uiso   1.00
C146   C     0.09070   0.38520   0.75740   0.00000  Uiso   1.00
H147   H     0.15460   0.37760   0.80070   0.00000  Uiso   1.00
C148   C     0.00640   0.40030   0.78090   0.00000  Uiso   1.00
H149   H     0.01370   0.40410   0.84020   0.00000  Uiso   1.00
C150   C     0.91000   0.41010   0.71640   0.00000  Uiso   1.00
C151   C     0.25460   0.34320   0.69630   0.00000  Uiso   1.00
C152   C     0.26300   0.26310   0.72210   0.00000  Uiso   1.00
H153   H     0.20560   0.22990   0.70550   0.00000  Uiso   1.00
C154   C     0.35820   0.23310   0.77290   0.00000  Uiso   1.00
C155   C     0.44290   0.28300   0.79460   0.00000  Uiso   1.00
H156   H     0.50650   0.26320   0.82950   0.00000  Uiso   1.00
C157   C     0.43430   0.36250   0.76500   0.00000  Uiso   1.00
C158   C     0.33870   0.39310   0.71600   0.00000  Uiso   1.00
H159   H     0.33150   0.44640   0.69690   0.00000  Uiso   1.00
C160   C     0.37200   0.14640   0.80200   0.00000  Uiso   1.00
C161   C     0.52900   0.41280   0.78510   0.00000  Uiso   1.00
C162   C     0.74250   0.63790   0.94730   0.00000  Uiso   1.00
C163   C     0.75560   0.72090   0.98650   0.00000  Uiso   1.00
C164   C     0.85320   0.75070   0.03240   0.00000  Uiso   1.00
H165   H     0.91020   0.71770   0.04350   0.00000  Uiso   1.00
C166   C     0.86450   0.82960   0.06130   0.00000  Uiso   1.00
C167   C     0.78090   0.88080   0.04390   0.00000  Uiso   1.00
H168   H     0.78970   0.93390   0.06350   0.00000  Uiso   1.00
C169   C     0.68380   0.85130   0.99658   0.00000  Uiso   1.00
C170   C     0.67130   0.77130   0.96930   0.00000  Uiso   1.00
H171   H     0.60600   0.75140   0.93940   0.00000  Uiso   1.00
C172   C     0.59460   0.90770   0.96930   0.00000  Uiso   1.00
C173   C     0.00020   0.87140   0.19120   0.00000  Uiso   1.00
C174   C     0.10250   0.89220   0.22830   0.00000  Uiso   1.00
H175   H     0.14280   0.89710   0.19310   0.00000  Uiso   1.00
C176   C     0.14380   0.90530   0.31720   0.00000  Uiso   1.00
H177   H     0.21240   0.91970   0.34220   0.00000  Uiso   1.00
C178   C     0.08510   0.89750   0.37060   0.00000  Uiso   1.00
C179   C     0.98260   0.87830   0.33210   0.00000  Uiso   1.00
H180   H     0.94170   0.87460   0.36670   0.00000  Uiso   1.00
C181   C     0.94070   0.86440   0.24270   0.00000  Uiso   1.00
H182   H     0.87200   0.85030   0.21730   0.00000  Uiso   1.00
C183   C     0.13060   0.91430   0.46590   0.00000  Uiso   1.00
Cd184  Cd    0.29152   0.00093   0.64202   0.00000  Uiso   1.00
Cd185  Cd    0.41891   0.99584   0.87350   0.00000  Uiso   1.00
O186   O     0.26894   0.92239   0.81720   0.00000  Uiso   1.00
O187   O     0.16677   0.94815   0.67982   0.00000  Uiso   1.00
O188   O     0.83909   0.87323   0.86021   0.00000  Uiso   1.00
O189   O     0.69717   0.59557   0.73198   0.00000  Uiso   1.00
O190   O     0.54441   0.62757   0.63729   0.00000  Uiso   1.00
O191   O     0.47610   0.98153   0.75054   0.00000  Uiso   1.00
O192   O     0.38976   0.88600   0.66068   0.00000  Uiso   1.00
O193   O     0.34638   0.10940   0.58587   0.00000  Uiso   1.00
O194   O     0.17953   0.10142   0.55386   0.00000  Uiso   1.00
O195   O     0.49016   0.38220   0.58315   0.00000  Uiso   1.00
O196   O     0.39290   0.48009   0.50380   0.00000  Uiso   1.00
O197   O     0.03597   0.35916   0.39910   0.00000  Uiso   1.00
O198   O     0.93420   0.40800   0.99139   0.00000  Uiso   1.00
H199   H     0.90450   0.41790   0.93910   0.00000  Uiso   1.00
O200   O     0.77977   0.43310   0.99827   0.00000  Uiso   1.00
C201   C     0.18100   0.92862   0.75870   0.00000  Uiso   1.00
C202   C     0.09850   0.90380   0.87090   0.00000  Uiso   1.00
H203   H     0.16260   0.90880   0.91450   0.00000  Uiso   1.00
C204   C     0.01440   0.89020   0.89500   0.00000  Uiso   1.00
H205   H     0.02140   0.88720   0.95420   0.00000  Uiso   1.00
C206   C     0.92000   0.88130   0.83050   0.00000  Uiso   1.00
C207   C     0.90930   0.88520   0.74260   0.00000  Uiso   1.00
H208   H     0.84540   0.87760   0.69930   0.00000  Uiso   1.00
C209   C     0.99360   0.90030   0.71910   0.00000  Uiso   1.00
H210   H     0.98630   0.90410   0.65980   0.00000  Uiso   1.00
C211   C     0.09000   0.91010   0.78360   0.00000  Uiso   1.00
C212   C     0.74540   0.84320   0.80370   0.00000  Uiso   1.00
C213   C     0.73700   0.76310   0.77790   0.00000  Uiso   1.00
H214   H     0.79440   0.72990   0.79450   0.00000  Uiso   1.00
C215   C     0.64180   0.73310   0.72710   0.00000  Uiso   1.00
C216   C     0.55710   0.78300   0.70540   0.00000  Uiso   1.00
H217   H     0.49350   0.76320   0.67050   0.00000  Uiso   1.00
C218   C     0.56570   0.86250   0.73500   0.00000  Uiso   1.00
C219   C     0.66130   0.89310   0.78400   0.00000  Uiso   1.00
H220   H     0.66850   0.94640   0.80310   0.00000  Uiso   1.00
C221   C     0.62800   0.64640   0.69800   0.00000  Uiso   1.00
C222   C     0.47100   0.91280   0.71490   0.00000  Uiso   1.00
C223   C     0.25750   0.13790   0.55270   0.00000  Uiso   1.00
C224   C     0.24440   0.22090   0.51350   0.00000  Uiso   1.00
C225   C     0.14680   0.25070   0.46760   0.00000  Uiso   1.00
H226   H     0.08980   0.21770   0.45650   0.00000  Uiso   1.00
C227   C     0.13550   0.32960   0.43870   0.00000  Uiso   1.00
C228   C     0.21910   0.38080   0.45610   0.00000  Uiso   1.00
H229   H     0.21030   0.43390   0.43650   0.00000  Uiso   1.00
C230   C     0.31620   0.35130   0.50342   0.00000  Uiso   1.00
C231   C     0.32870   0.27130   0.53070   0.00000  Uiso   1.00
H232   H     0.39400   0.25140   0.56060   0.00000  Uiso   1.00
C233   C     0.40540   0.40770   0.53070   0.00000  Uiso   1.00
C234   C     0.99980   0.37140   0.30880   0.00000  Uiso   1.00
C235   C     0.89750   0.39220   0.27170   0.00000  Uiso   1.00
H236   H     0.85720   0.39710   0.30690   0.00000  Uiso   1.00
C237   C     0.85620   0.40530   0.18280   0.00000  Uiso   1.00
H238   H     0.78760   0.41970   0.15780   0.00000  Uiso   1.00
C239   C     0.91490   0.39750   0.12940   0.00000  Uiso   1.00
C240   C     0.01740   0.37830   0.16790   0.00000  Uiso   1.00
H241   H     0.05830   0.37460   0.13330   0.00000  Uiso   1.00
C242   C     0.05930   0.36440   0.25730   0.00000  Uiso   1.00
H243   H     0.12800   0.35030   0.28270   0.00000  Uiso   1.00
C244   C     0.86940   0.41430   0.03410   0.00000  Uiso   1.00
loop_
_geom_bond_atom_site_label_1
_geom_bond_atom_site_label_2
_geom_bond_distance
_geom_bond_site_symmetry_2
_ccdc_geom_bond_type
Cd1    O8      2.581   .     S
Cd1    O9      2.305   .     S
Cd1    O10     2.265   .     S
Cd1    O11     2.388   .     S
Cd1    O4      2.213   .     S
Cd1    O67     2.535   .     S
Cd1    O78     2.417   .     S
Cd2    O8      2.398   .     S
Cd2    O3      2.314   .     S
Cd2    O68     2.265   .     S
Cd2    O73     2.244   .     S
Cd2    O74     2.696   .     S
Cd2    O196    2.295   .     S
Cd2    O67     2.520   .     S
O3     C18     1.266   .     S
O4     C18     1.264   .     S
O5     C23     1.376   .     S
O5     C29     1.400   .     S
O6     C38     1.255   .     S
O6     Cd62    2.535   .     S
O6     Cd63    2.520   1_565 S
O7     C38     1.275   .     S
O7     Cd63    2.265   1_565 S
O8     C39     1.269   .     S
O9     C39     1.249   .     S
O10    C40     1.258   .     S
O11    C40     1.249   .     S
O12    C50     1.264   .     S
O12    Cd63    2.244   .     S
O13    C50     1.269   .     S
O13    Cd185   2.295   1_544 S
O13    Cd63    2.696   .     S
O14    C44     1.399   .     S
O14    C51     1.385   1_455 S
O15    H16     0.819   .     S
O15    C61     1.317   .     S
O17    C61     1.220   .     S
O17    Cd62    2.417   1_545 S
C18    C28     1.489   .     S
C19    H20     0.930   .     S
C19    C21     1.375   .     S
C19    C28     1.380   .     S
C21    H22     0.930   .     S
C21    C23     1.374   1_455 S
C23    C21     1.374   1_655 S
C23    C24     1.379   .     S
C24    H25     0.931   .     S
C24    C26     1.377   .     S
C26    H27     0.931   .     S
C26    C28     1.395   1_655 S
C28    C26     1.395   1_455 S
C29    C30     1.386   .     S
C29    C36     1.378   .     S
C30    H31     0.930   .     S
C30    C32     1.387   .     S
C32    C33     1.383   .     S
C32    C38     1.505   .     S
C33    H34     0.930   .     S
C33    C35     1.394   .     S
C35    C36     1.388   .     S
C35    C39     1.498   .     S
C36    H37     0.931   .     S
C40    C41     1.500   .     S
C41    C42     1.394   1_554 S
C41    C48     1.389   .     S
C42    C41     1.394   1_556 S
C42    H43     0.929   .     S
C42    C44     1.380   .     S
C44    C45     1.389   .     S
C45    H46     0.930   .     S
C45    C47     1.391   1_556 S
C47    C45     1.391   1_554 S
C47    C50     1.494   .     S
C47    C48     1.390   .     S
C48    H49     0.930   .     S
C51    O14     1.385   1_655 S
C51    C52     1.384   .     S
C51    C59     1.369   1_655 S
C52    H53     0.932   .     S
C52    C54     1.369   .     S
C54    H55     0.930   .     S
C54    C56     1.386   .     S
C56    C57     1.382   1_655 S
C56    C61     1.476   .     S
C57    C56     1.382   1_455 S
C57    H58     0.929   .     S
C57    C59     1.379   .     S
C59    C51     1.369   1_455 S
C59    H60     0.931   .     S
Cd62   O69     2.581   1_565 S
Cd62   O70     2.305   1_565 S
Cd62   O71     2.265   .     S
Cd62   O72     2.388   .     S
Cd62   O65     2.213   1_565 S
Cd62   O17     2.417   1_565 S
Cd63   O69     2.398   .     S
Cd63   O64     2.314   .     S
Cd63   O7      2.265   1_545 S
Cd63   O135    2.295   1_544 S
Cd63   O6      2.520   1_545 S
O64    C79     1.266   .     S
O65    C79     1.264   .     S
O65    Cd62    2.213   1_545 S
O66    C84     1.376   .     S
O66    C90     1.400   .     S
O67    C99     1.255   .     S
O68    C99     1.275   .     S
O69    Cd62    2.581   1_545 S
O69    C100    1.269   .     S
O70    Cd62    2.305   1_545 S
O70    C100    1.249   .     S
O71    C101    1.258   .     S
O72    C101    1.249   .     S
O73    C111    1.264   .     S
O74    C111    1.269   .     S
O74    Cd124   2.295   .     S
O75    C105    1.399   .     S
O75    C112    1.385   1_655 S
O76    H77     0.819   .     S
O76    C122    1.317   1_554 S
O78    C122    1.220   1_554 S
C79    C89     1.489   .     S
C80    H81     0.930   .     S
C80    C82     1.375   .     S
C80    C89     1.380   .     S
C82    H83     0.930   .     S
C82    C84     1.374   1_655 S
C84    C82     1.374   1_455 S
C84    C85     1.379   .     S
C85    H86     0.931   .     S
C85    C87     1.377   .     S
C87    H88     0.931   .     S
C87    C89     1.395   1_455 S
C89    C87     1.395   1_655 S
C90    C91     1.386   .     S
C90    C97     1.378   .     S
C91    H92     0.930   .     S
C91    C93     1.387   .     S
C93    C94     1.383   .     S
C93    C99     1.505   .     S
C94    H95     0.930   .     S
C94    C96     1.394   .     S
C96    C97     1.388   .     S
C96    C100    1.498   .     S
C97    H98     0.931   .     S
C101   C102    1.500   .     S
C102   C103    1.394   .     S
C102   C109    1.389   .     S
C103   H104    0.929   .     S
C103   C105    1.380   .     S
C105   C106    1.389   .     S
C106   H107    0.930   .     S
C106   C108    1.391   .     S
C108   C111    1.494   .     S
C108   C109    1.390   .     S
C109   H110    0.930   .     S
C112   O75     1.385   1_455 S
C112   C113    1.384   .     S
C112   C120    1.369   1_455 S
C113   H114    0.932   .     S
C113   C115    1.369   .     S
C115   H116    0.930   .     S
C115   C117    1.386   .     S
C117   C118    1.382   1_455 S
C117   C122    1.476   .     S
C118   C117    1.382   1_655 S
C118   H119    0.929   .     S
C118   C120    1.379   .     S
C120   C112    1.369   1_655 S
C120   H121    0.931   .     S
C122   O78     1.220   1_556 S
C122   O76     1.317   1_556 S
Cd123  O130    2.581   .     S
Cd123  O131    2.305   .     S
Cd123  O132    2.265   .     S
Cd123  O133    2.388   .     S
Cd123  O126    2.213   .     S
Cd123  O189    2.535   .     S
Cd123  O200    2.417   .     S
Cd124  O130    2.398   .     S
Cd124  O125    2.314   .     S
Cd124  O190    2.265   .     S
Cd124  O195    2.244   .     S
Cd124  O196    2.696   .     S
Cd124  O189    2.520   .     S
O125   C140    1.266   .     S
O126   C140    1.264   .     S
O127   C145    1.376   .     S
O127   C151    1.400   .     S
O128   C160    1.255   .     S
O128   Cd184   2.535   .     S
O128   Cd185   2.520   1_545 S
O129   C160    1.275   .     S
O129   Cd185   2.265   1_545 S
O130   C161    1.269   .     S
O131   C161    1.249   .     S
O132   C162    1.258   .     S
O133   C162    1.249   .     S
O134   C172    1.264   .     S
O134   Cd185   2.244   .     S
O135   C172    1.269   .     S
O135   Cd63    2.295   1_566 S
O135   Cd185   2.696   .     S
O136   C166    1.399   .     S
O136   C173    1.385   1_655 S
O137   H138    0.819   .     S
O137   C183    1.317   .     S
O139   C183    1.220   .     S
O139   Cd184   2.417   1_565 S
C140   C150    1.489   .     S
C141   H142    0.930   .     S
C141   C143    1.375   .     S
C141   C150    1.380   .     S
C143   H144    0.930   .     S
C143   C145    1.374   1_655 S
C145   C143    1.374   1_455 S
C145   C146    1.379   .     S
C146   H147    0.931   .     S
C146   C148    1.377   .     S
C148   H149    0.931   .     S
C148   C150    1.395   1_455 S
C150   C148    1.395   1_655 S
C151   C152    1.386   .     S
C151   C158    1.378   .     S
C152   H153    0.930   .     S
C152   C154    1.387   .     S
C154   C155    1.383   .     S
C154   C160    1.505   .     S
C155   H156    0.930   .     S
C155   C157    1.394   .     S
C157   C158    1.388   .     S
C157   C161    1.498   .     S
C158   H159    0.931   .     S
C162   C163    1.500   .     S
C163   C164    1.394   1_556 S
C163   C170    1.389   .     S
C164   C163    1.394   1_554 S
C164   H165    0.929   .     S
C164   C166    1.380   .     S
C166   C167    1.389   .     S
C167   H168    0.930   .     S
C167   C169    1.391   1_554 S
C169   C167    1.391   1_556 S
C169   C172    1.494   .     S
C169   C170    1.390   .     S
C170   H171    0.930   .     S
C173   O136    1.385   1_455 S
C173   C174    1.384   .     S
C173   C181    1.369   1_455 S
C174   H175    0.932   .     S
C174   C176    1.369   .     S
C176   H177    0.930   .     S
C176   C178    1.386   .     S
C178   C179    1.382   1_455 S
C178   C183    1.476   .     S
C179   C178    1.382   1_655 S
C179   H180    0.929   .     S
C179   C181    1.379   .     S
C181   C173    1.369   1_655 S
C181   H182    0.931   .     S
Cd184  O191    2.581   1_545 S
Cd184  O192    2.305   1_545 S
Cd184  O193    2.265   .     S
Cd184  O194    2.388   .     S
Cd184  O187    2.213   1_545 S
Cd184  O139    2.417   1_545 S
Cd185  O191    2.398   .     S
Cd185  O186    2.314   .     S
Cd185  O129    2.265   1_565 S
Cd185  O13     2.295   1_566 S
Cd185  O128    2.520   1_565 S
O186   C201    1.266   .     S
O187   C201    1.264   .     S
O187   Cd184   2.213   1_565 S
O188   C206    1.376   .     S
O188   C212    1.400   .     S
O189   C221    1.255   .     S
O190   C221    1.275   .     S
O191   Cd184   2.581   1_565 S
O191   C222    1.269   .     S
O192   Cd184   2.305   1_565 S
O192   C222    1.249   .     S
O193   C223    1.258   .     S
O194   C223    1.249   .     S
O195   C233    1.264   .     S
O196   C233    1.269   .     S
O197   C227    1.399   .     S
O197   C234    1.385   1_455 S
O198   H199    0.819   .     S
O198   C244    1.317   1_556 S
O200   C244    1.220   1_556 S
C201   C211    1.489   .     S
C202   H203    0.930   .     S
C202   C204    1.375   .     S
C202   C211    1.380   .     S
C204   H205    0.930   .     S
C204   C206    1.374   1_455 S
C206   C204    1.374   1_655 S
C206   C207    1.379   .     S
C207   H208    0.931   .     S
C207   C209    1.377   .     S
C209   H210    0.931   .     S
C209   C211    1.395   1_655 S
C211   C209    1.395   1_455 S
C212   C213    1.386   .     S
C212   C219    1.378   .     S
C213   H214    0.930   .     S
C213   C215    1.387   .     S
C215   C216    1.383   .     S
C215   C221    1.505   .     S
C216   H217    0.930   .     S
C216   C218    1.394   .     S
C218   C219    1.388   .     S
C218   C222    1.498   .     S
C219   H220    0.931   .     S
C223   C224    1.500   .     S
C224   C225    1.394   .     S
C224   C231    1.389   .     S
C225   H226    0.929   .     S
C225   C227    1.380   .     S
C227   C228    1.389   .     S
C228   H229    0.930   .     S
C228   C230    1.391   .     S
C230   C233    1.494   .     S
C230   C231    1.390   .     S
C231   H232    0.930   .     S
C234   O197    1.385   1_655 S
C234   C235    1.384   .     S
C234   C242    1.369   1_655 S
C235   H236    0.932   .     S
C235   C237    1.369   .     S
C237   H238    0.930   .     S
C237   C239    1.386   .     S
C239   C240    1.382   1_655 S
C239   C244    1.476   .     S
C240   C239    1.382   1_455 S
C240   H241    0.929   .     S
C240   C242    1.379   .     S
C242   C234    1.369   1_455 S
C242   H243    0.931   .     S
C244   O200    1.220   1_554 S
C244   O198    1.317   1_554 S
