data_KALQEV_FSR
_audit_creation_date              2024-06-11
_audit_creation_method            'Materials Studio'
_symmetry_space_group_name_H-M    'P1'
_symmetry_Int_Tables_number       1
_symmetry_cell_setting            triclinic
loop_
_symmetry_equiv_pos_as_xyz
  x,y,z
_cell_length_a                    19.4110
_cell_length_b                    19.4110
_cell_length_c                    16.0339
_cell_angle_alpha                 90.0000
_cell_angle_beta                  90.0000
_cell_angle_gamma                 120.0000
loop_
_atom_site_label
_atom_site_type_symbol
_atom_site_fract_x
_atom_site_fract_y
_atom_site_fract_z
_atom_site_U_iso_or_equiv
_atom_site_adp_type
_atom_site_occupancy
Cr1    Cr    0.64000   0.83107   0.17485   0.00000  Uiso   1.00
O2     O     0.62704   0.76978   0.07200   0.00000  Uiso   1.00
O3     O     0.55230   0.72770   0.21630   0.00000  Uiso   1.00
O4     O     0.55640   0.64511   0.02360   0.00000  Uiso   1.00
O5     O     0.48470   0.59972   0.17710   0.00000  Uiso   1.00
O6     O     0.63430   0.88600   0.27700   0.00000  Uiso   1.00
O7     O     0.56460   0.86318   0.13050   0.00000  Uiso   1.00
O8     O     0.62120   0.58330   0.15070   0.00000  Uiso   1.00
O9     O     0.57355   0.51090   0.99810   0.00000  Uiso   1.00
O10    O     0.72090   0.80840   0.21910   0.00000  Uiso   1.00
O11    O     0.73350   0.92890   0.13480   0.00000  Uiso   1.00
O12    O     0.85100   0.85510   0.21520   0.00000  Uiso   1.00
O13    O     0.86560   0.99690   0.15340   0.00000  Uiso   1.00
C14    C     0.57580   0.69660   0.07870   0.00000  Uiso   1.00
C15    C     0.53300   0.67090   0.16440   0.00000  Uiso   1.00
C16    C     0.67100   0.59180   0.09950   0.00000  Uiso   1.00
C17    C     0.64550   0.55230   0.01440   0.00000  Uiso   1.00
C18    C     0.79290   0.86080   0.20180   0.00000  Uiso   1.00
C19    C     0.80010   0.93660   0.15790   0.00000  Uiso   1.00
Cr20   Cr    0.16893   0.80893   0.84152   0.00000  Uiso   1.00
O21    O     0.23022   0.85726   0.73867   0.00000  Uiso   1.00
O22    O     0.27230   0.82460   0.88297   0.00000  Uiso   1.00
O23    O     0.35489   0.91129   0.69027   0.00000  Uiso   1.00
O24    O     0.40028   0.88498   0.84377   0.00000  Uiso   1.00
O25    O     0.11400   0.74830   0.94367   0.00000  Uiso   1.00
O26    O     0.13682   0.70142   0.79717   0.00000  Uiso   1.00
O27    O     0.41670   0.03790   0.81737   0.00000  Uiso   1.00
O28    O     0.48910   0.06265   0.66477   0.00000  Uiso   1.00
O29    O     0.19160   0.91250   0.88577   0.00000  Uiso   1.00
O30    O     0.07110   0.80460   0.80147   0.00000  Uiso   1.00
O31    O     0.14490   0.99590   0.88187   0.00000  Uiso   1.00
O32    O     0.00310   0.86870   0.82007   0.00000  Uiso   1.00
C33    C     0.30340   0.87920   0.74537   0.00000  Uiso   1.00
C34    C     0.32910   0.86210   0.83107   0.00000  Uiso   1.00
C35    C     0.40820   0.07920   0.76617   0.00000  Uiso   1.00
C36    C     0.44770   0.09320   0.68107   0.00000  Uiso   1.00
C37    C     0.13920   0.93210   0.86847   0.00000  Uiso   1.00
C38    C     0.06340   0.86350   0.82457   0.00000  Uiso   1.00
Cr39   Cr    0.19107   0.36000   0.50818   0.00000  Uiso   1.00
O40    O     0.14274   0.37296   0.40533   0.00000  Uiso   1.00
O41    O     0.17540   0.44770   0.54963   0.00000  Uiso   1.00
O42    O     0.08871   0.44360   0.35693   0.00000  Uiso   1.00
O43    O     0.11502   0.51530   0.51043   0.00000  Uiso   1.00
O44    O     0.25170   0.36570   0.61033   0.00000  Uiso   1.00
O45    O     0.29858   0.43540   0.46383   0.00000  Uiso   1.00
O46    O     0.96210   0.37880   0.48403   0.00000  Uiso   1.00
O47    O     0.93735   0.42645   0.33143   0.00000  Uiso   1.00
O48    O     0.08750   0.27910   0.55243   0.00000  Uiso   1.00
O49    O     0.19540   0.26650   0.46813   0.00000  Uiso   1.00
O50    O     0.00410   0.14900   0.54853   0.00000  Uiso   1.00
O51    O     0.13130   0.13440   0.48673   0.00000  Uiso   1.00
C52    C     0.12080   0.42420   0.41203   0.00000  Uiso   1.00
C53    C     0.13790   0.46700   0.49773   0.00000  Uiso   1.00
C54    C     0.92080   0.32900   0.43283   0.00000  Uiso   1.00
C55    C     0.90680   0.35450   0.34773   0.00000  Uiso   1.00
C56    C     0.06790   0.20710   0.53513   0.00000  Uiso   1.00
C57    C     0.13650   0.19990   0.49123   0.00000  Uiso   1.00
Cr58   Cr    0.36000   0.16893   0.67485   0.00000  Uiso   1.00
O59    O     0.37296   0.23022   0.57200   0.00000  Uiso   1.00
O60    O     0.44770   0.27230   0.71630   0.00000  Uiso   1.00
O61    O     0.44360   0.35489   0.52360   0.00000  Uiso   1.00
O62    O     0.51530   0.40028   0.67710   0.00000  Uiso   1.00
O63    O     0.36570   0.11400   0.77700   0.00000  Uiso   1.00
O64    O     0.43540   0.13682   0.63050   0.00000  Uiso   1.00
O65    O     0.37880   0.41670   0.65070   0.00000  Uiso   1.00
O66    O     0.42645   0.48910   0.49810   0.00000  Uiso   1.00
O67    O     0.27910   0.19160   0.71910   0.00000  Uiso   1.00
O68    O     0.26650   0.07110   0.63480   0.00000  Uiso   1.00
O69    O     0.14900   0.14490   0.71520   0.00000  Uiso   1.00
O70    O     0.13440   0.00310   0.65340   0.00000  Uiso   1.00
C71    C     0.42420   0.30340   0.57870   0.00000  Uiso   1.00
C72    C     0.46700   0.32910   0.66440   0.00000  Uiso   1.00
C73    C     0.32900   0.40820   0.59950   0.00000  Uiso   1.00
C74    C     0.35450   0.44770   0.51440   0.00000  Uiso   1.00
C75    C     0.20710   0.13920   0.70180   0.00000  Uiso   1.00
C76    C     0.19990   0.06340   0.65790   0.00000  Uiso   1.00
Cr77   Cr    0.83107   0.19107   0.34152   0.00000  Uiso   1.00
O78    O     0.76978   0.14274   0.23867   0.00000  Uiso   1.00
O79    O     0.72770   0.17540   0.38297   0.00000  Uiso   1.00
O80    O     0.64511   0.08871   0.19027   0.00000  Uiso   1.00
O81    O     0.59972   0.11502   0.34377   0.00000  Uiso   1.00
O82    O     0.88600   0.25170   0.44367   0.00000  Uiso   1.00
O83    O     0.86318   0.29858   0.29717   0.00000  Uiso   1.00
O84    O     0.58330   0.96210   0.31737   0.00000  Uiso   1.00
O85    O     0.51090   0.93735   0.16477   0.00000  Uiso   1.00
O86    O     0.80840   0.08750   0.38577   0.00000  Uiso   1.00
O87    O     0.92890   0.19540   0.30147   0.00000  Uiso   1.00
O88    O     0.85510   0.00410   0.38187   0.00000  Uiso   1.00
O89    O     0.99690   0.13130   0.32007   0.00000  Uiso   1.00
C90    C     0.69660   0.12080   0.24537   0.00000  Uiso   1.00
C91    C     0.67090   0.13790   0.33107   0.00000  Uiso   1.00
C92    C     0.59180   0.92080   0.26617   0.00000  Uiso   1.00
C93    C     0.55230   0.90680   0.18107   0.00000  Uiso   1.00
C94    C     0.86080   0.06790   0.36847   0.00000  Uiso   1.00
C95    C     0.93660   0.13650   0.32457   0.00000  Uiso   1.00
Cr96   Cr    0.80893   0.64000   0.00818   0.00000  Uiso   1.00
O97    O     0.85726   0.62704   0.90533   0.00000  Uiso   1.00
O98    O     0.82460   0.55230   0.04963   0.00000  Uiso   1.00
O99    O     0.91129   0.55640   0.85693   0.00000  Uiso   1.00
O100   O     0.88498   0.48470   0.01043   0.00000  Uiso   1.00
O101   O     0.74830   0.63430   0.11033   0.00000  Uiso   1.00
O102   O     0.70142   0.56460   0.96383   0.00000  Uiso   1.00
O103   O     0.03790   0.62120   0.98403   0.00000  Uiso   1.00
O104   O     0.06265   0.57355   0.83143   0.00000  Uiso   1.00
O105   O     0.91250   0.72090   0.05243   0.00000  Uiso   1.00
O106   O     0.80460   0.73350   0.96813   0.00000  Uiso   1.00
O107   O     0.99590   0.85100   0.04853   0.00000  Uiso   1.00
O108   O     0.86870   0.86560   0.98673   0.00000  Uiso   1.00
C109   C     0.87920   0.57580   0.91203   0.00000  Uiso   1.00
C110   C     0.86210   0.53300   0.99773   0.00000  Uiso   1.00
C111   C     0.07920   0.67100   0.93283   0.00000  Uiso   1.00
C112   C     0.09320   0.64550   0.84773   0.00000  Uiso   1.00
C113   C     0.93210   0.79290   0.03513   0.00000  Uiso   1.00
C114   C     0.86350   0.80010   0.99123   0.00000  Uiso   1.00
Cr115  Cr    0.83107   0.64000   0.49182   0.00000  Uiso   1.00
O116   O     0.76978   0.62704   0.59467   0.00000  Uiso   1.00
O117   O     0.72770   0.55230   0.45037   0.00000  Uiso   1.00
O118   O     0.64511   0.55640   0.64307   0.00000  Uiso   1.00
O119   O     0.59972   0.48470   0.48957   0.00000  Uiso   1.00
O120   O     0.88600   0.63430   0.38967   0.00000  Uiso   1.00
O121   O     0.86318   0.56460   0.53617   0.00000  Uiso   1.00
O122   O     0.58330   0.62120   0.51597   0.00000  Uiso   1.00
O123   O     0.51090   0.57355   0.66857   0.00000  Uiso   1.00
O124   O     0.80840   0.72090   0.44757   0.00000  Uiso   1.00
O125   O     0.92890   0.73350   0.53187   0.00000  Uiso   1.00
O126   O     0.85510   0.85100   0.45147   0.00000  Uiso   1.00
O127   O     0.99690   0.86560   0.51327   0.00000  Uiso   1.00
C128   C     0.69660   0.57580   0.58797   0.00000  Uiso   1.00
C129   C     0.67090   0.53300   0.50227   0.00000  Uiso   1.00
C130   C     0.59180   0.67100   0.56717   0.00000  Uiso   1.00
C131   C     0.55230   0.64550   0.65227   0.00000  Uiso   1.00
C132   C     0.86080   0.79290   0.46487   0.00000  Uiso   1.00
C133   C     0.93660   0.80010   0.50877   0.00000  Uiso   1.00
Cr134  Cr    0.80893   0.16893   0.82515   0.00000  Uiso   1.00
O135   O     0.85726   0.23022   0.92800   0.00000  Uiso   1.00
O136   O     0.82460   0.27230   0.78370   0.00000  Uiso   1.00
O137   O     0.91129   0.35489   0.97640   0.00000  Uiso   1.00
O138   O     0.88498   0.40028   0.82290   0.00000  Uiso   1.00
O139   O     0.74830   0.11400   0.72300   0.00000  Uiso   1.00
O140   O     0.70142   0.13682   0.86950   0.00000  Uiso   1.00
O141   O     0.03790   0.41670   0.84930   0.00000  Uiso   1.00
O142   O     0.06265   0.48910   0.00190   0.00000  Uiso   1.00
O143   O     0.91250   0.19160   0.78090   0.00000  Uiso   1.00
O144   O     0.80460   0.07110   0.86520   0.00000  Uiso   1.00
O145   O     0.99590   0.14490   0.78480   0.00000  Uiso   1.00
O146   O     0.86870   0.00310   0.84660   0.00000  Uiso   1.00
C147   C     0.87920   0.30340   0.92130   0.00000  Uiso   1.00
C148   C     0.86210   0.32910   0.83560   0.00000  Uiso   1.00
C149   C     0.07920   0.40820   0.90050   0.00000  Uiso   1.00
C150   C     0.09320   0.44770   0.98560   0.00000  Uiso   1.00
C151   C     0.93210   0.13920   0.79820   0.00000  Uiso   1.00
C152   C     0.86350   0.06340   0.84210   0.00000  Uiso   1.00
Cr153  Cr    0.36000   0.19107   0.15848   0.00000  Uiso   1.00
O154   O     0.37296   0.14274   0.26133   0.00000  Uiso   1.00
O155   O     0.44770   0.17540   0.11703   0.00000  Uiso   1.00
O156   O     0.44360   0.08871   0.30973   0.00000  Uiso   1.00
O157   O     0.51530   0.11502   0.15623   0.00000  Uiso   1.00
O158   O     0.36570   0.25170   0.05633   0.00000  Uiso   1.00
O159   O     0.43540   0.29858   0.20283   0.00000  Uiso   1.00
O160   O     0.37880   0.96210   0.18263   0.00000  Uiso   1.00
O161   O     0.42645   0.93735   0.33523   0.00000  Uiso   1.00
O162   O     0.27910   0.08750   0.11423   0.00000  Uiso   1.00
O163   O     0.26650   0.19540   0.19853   0.00000  Uiso   1.00
O164   O     0.14900   0.00410   0.11813   0.00000  Uiso   1.00
O165   O     0.13440   0.13130   0.17993   0.00000  Uiso   1.00
C166   C     0.42420   0.12080   0.25463   0.00000  Uiso   1.00
C167   C     0.46700   0.13790   0.16893   0.00000  Uiso   1.00
C168   C     0.32900   0.92080   0.23383   0.00000  Uiso   1.00
C169   C     0.35450   0.90680   0.31893   0.00000  Uiso   1.00
C170   C     0.20710   0.06790   0.13153   0.00000  Uiso   1.00
C171   C     0.19990   0.13650   0.17543   0.00000  Uiso   1.00
Cr172  Cr    0.16893   0.36000   0.99182   0.00000  Uiso   1.00
O173   O     0.23022   0.37296   0.09467   0.00000  Uiso   1.00
O174   O     0.27230   0.44770   0.95037   0.00000  Uiso   1.00
O175   O     0.35489   0.44360   0.14307   0.00000  Uiso   1.00
O176   O     0.40028   0.51530   0.98957   0.00000  Uiso   1.00
O177   O     0.11400   0.36570   0.88967   0.00000  Uiso   1.00
O178   O     0.13682   0.43540   0.03617   0.00000  Uiso   1.00
O179   O     0.41670   0.37880   0.01597   0.00000  Uiso   1.00
O180   O     0.48910   0.42645   0.16857   0.00000  Uiso   1.00
O181   O     0.19160   0.27910   0.94757   0.00000  Uiso   1.00
O182   O     0.07110   0.26650   0.03187   0.00000  Uiso   1.00
O183   O     0.14490   0.14900   0.95147   0.00000  Uiso   1.00
O184   O     0.00310   0.13440   0.01327   0.00000  Uiso   1.00
C185   C     0.30340   0.42420   0.08797   0.00000  Uiso   1.00
C186   C     0.32910   0.46700   0.00227   0.00000  Uiso   1.00
C187   C     0.40820   0.32900   0.06717   0.00000  Uiso   1.00
C188   C     0.44770   0.35450   0.15227   0.00000  Uiso   1.00
C189   C     0.13920   0.20710   0.96487   0.00000  Uiso   1.00
C190   C     0.06340   0.19990   0.00877   0.00000  Uiso   1.00
Cr191  Cr    0.19107   0.83107   0.32515   0.00000  Uiso   1.00
O192   O     0.14274   0.76978   0.42800   0.00000  Uiso   1.00
O193   O     0.17540   0.72770   0.28370   0.00000  Uiso   1.00
O194   O     0.08871   0.64511   0.47640   0.00000  Uiso   1.00
O195   O     0.11502   0.59972   0.32290   0.00000  Uiso   1.00
O196   O     0.25170   0.88600   0.22300   0.00000  Uiso   1.00
O197   O     0.29858   0.86318   0.36950   0.00000  Uiso   1.00
O198   O     0.96210   0.58330   0.34930   0.00000  Uiso   1.00
O199   O     0.93735   0.51090   0.50190   0.00000  Uiso   1.00
O200   O     0.08750   0.80840   0.28090   0.00000  Uiso   1.00
O201   O     0.19540   0.92890   0.36520   0.00000  Uiso   1.00
O202   O     0.00410   0.85510   0.28480   0.00000  Uiso   1.00
O203   O     0.13130   0.99690   0.34660   0.00000  Uiso   1.00
C204   C     0.12080   0.69660   0.42130   0.00000  Uiso   1.00
C205   C     0.13790   0.67090   0.33560   0.00000  Uiso   1.00
C206   C     0.92080   0.59180   0.40050   0.00000  Uiso   1.00
C207   C     0.90680   0.55230   0.48560   0.00000  Uiso   1.00
C208   C     0.06790   0.86080   0.29820   0.00000  Uiso   1.00
C209   C     0.13650   0.93660   0.34210   0.00000  Uiso   1.00
Cr210  Cr    0.64000   0.80893   0.65848   0.00000  Uiso   1.00
O211   O     0.62704   0.85726   0.76133   0.00000  Uiso   1.00
O212   O     0.55230   0.82460   0.61703   0.00000  Uiso   1.00
O213   O     0.55640   0.91129   0.80973   0.00000  Uiso   1.00
O214   O     0.48470   0.88498   0.65623   0.00000  Uiso   1.00
O215   O     0.63430   0.74830   0.55633   0.00000  Uiso   1.00
O216   O     0.56460   0.70142   0.70283   0.00000  Uiso   1.00
O217   O     0.62120   0.03790   0.68263   0.00000  Uiso   1.00
O218   O     0.57355   0.06265   0.83523   0.00000  Uiso   1.00
O219   O     0.72090   0.91250   0.61423   0.00000  Uiso   1.00
O220   O     0.73350   0.80460   0.69853   0.00000  Uiso   1.00
O221   O     0.85100   0.99590   0.61813   0.00000  Uiso   1.00
O222   O     0.86560   0.86870   0.67993   0.00000  Uiso   1.00
C223   C     0.57580   0.87920   0.75463   0.00000  Uiso   1.00
C224   C     0.53300   0.86210   0.66893   0.00000  Uiso   1.00
C225   C     0.67100   0.07920   0.73383   0.00000  Uiso   1.00
C226   C     0.64550   0.09320   0.81893   0.00000  Uiso   1.00
C227   C     0.79290   0.93210   0.63153   0.00000  Uiso   1.00
C228   C     0.80010   0.86350   0.67543   0.00000  Uiso   1.00
Mn229  Mn    0.48521   0.51479   0.08333   0.00000  Uiso   1.00
Mn230  Mn    0.48521   0.97042   0.75000   0.00000  Uiso   1.00
Mn231  Mn    0.02958   0.51479   0.41667   0.00000  Uiso   1.00
Mn232  Mn    0.51479   0.48521   0.58333   0.00000  Uiso   1.00
Mn233  Mn    0.51479   0.02958   0.25000   0.00000  Uiso   1.00
Mn234  Mn    0.97042   0.48521   0.91667   0.00000  Uiso   1.00
loop_
_geom_bond_atom_site_label_1
_geom_bond_atom_site_label_2
_geom_bond_distance
_geom_bond_site_symmetry_2
_ccdc_geom_bond_type
Cr1    O2      1.975   .     S
Cr1    O3      1.987   .     S
Cr1    O6      1.987   .     S
Cr1    O7      1.987   .     S
Cr1    O10     1.963   .     S
Cr1    O11     1.966   .     S
O2     C14     1.267   .     S
O3     C15     1.279   .     S
O4     Mn229   2.394   .     S
O4     C14     1.243   .     S
O5     Mn229   2.235   .     S
O5     C15     1.239   .     S
O6     C92     1.313   .     S
O7     C93     1.278   .     S
O8     Mn229   2.528   .     S
O8     C16     1.215   .     S
O9     Mn229   2.223   1_556 S
O9     C17     1.242   1_556 S
O10    C18     1.282   .     S
O11    C19     1.280   .     S
O12    C18     1.206   .     S
O13    C19     1.226   .     S
C14    C15     1.553   .     S
C16    O101    1.313   .     S
C16    C17     1.522   .     S
C17    O9      1.242   1_554 S
C17    O102    1.278   1_554 S
C18    C19     1.573   .     S
Cr20   O21     1.975   .     S
Cr20   O22     1.987   .     S
Cr20   O25     1.987   .     S
Cr20   O26     1.987   .     S
Cr20   O29     1.963   .     S
Cr20   O30     1.966   .     S
O21    C33     1.267   .     S
O22    C34     1.279   .     S
O23    Mn230   2.394   .     S
O23    C33     1.243   .     S
O24    Mn230   2.235   .     S
O24    C34     1.239   .     S
O25    C111    1.313   .     S
O26    C112    1.278   .     S
O27    Mn230   2.528   1_545 S
O27    C35     1.215   .     S
O28    Mn230   2.223   1_545 S
O28    C36     1.242   .     S
O29    C37     1.282   .     S
O30    C38     1.280   .     S
O31    C37     1.206   .     S
O32    C38     1.226   .     S
C33    C34     1.553   .     S
C35    O63     1.313   .     S
C35    C36     1.522   .     S
C36    O64     1.278   .     S
C37    C38     1.573   .     S
Cr39   O40     1.975   .     S
Cr39   O41     1.987   .     S
Cr39   O44     1.987   .     S
Cr39   O45     1.987   .     S
Cr39   O48     1.963   .     S
Cr39   O49     1.966   .     S
O40    C52     1.267   .     S
O41    C53     1.279   .     S
O42    Mn231   2.394   .     S
O42    C52     1.243   .     S
O43    Mn231   2.235   .     S
O43    C53     1.239   .     S
O44    C73     1.313   .     S
O45    C74     1.278   .     S
O46    Mn231   2.528   1_655 S
O46    C54     1.215   .     S
O47    Mn231   2.223   1_655 S
O47    C55     1.242   .     S
O48    C56     1.282   .     S
O49    C57     1.280   .     S
O50    C56     1.206   .     S
O51    C57     1.226   .     S
C52    C53     1.553   .     S
C54    O82     1.313   .     S
C54    C55     1.522   .     S
C55    O83     1.278   .     S
C56    C57     1.573   .     S
Cr58   O59     1.975   .     S
Cr58   O60     1.987   .     S
Cr58   O63     1.987   .     S
Cr58   O64     1.987   .     S
Cr58   O67     1.963   .     S
Cr58   O68     1.966   .     S
O59    C71     1.267   .     S
O60    C72     1.279   .     S
O61    Mn232   2.394   .     S
O61    C71     1.243   .     S
O62    Mn232   2.235   .     S
O62    C72     1.239   .     S
O65    Mn232   2.528   .     S
O65    C73     1.215   .     S
O66    Mn232   2.223   .     S
O66    C74     1.242   .     S
O67    C75     1.282   .     S
O68    C76     1.280   .     S
O69    C75     1.206   .     S
O70    C76     1.226   .     S
C71    C72     1.553   .     S
C73    C74     1.522   .     S
C75    C76     1.573   .     S
Cr77   O78     1.975   .     S
Cr77   O79     1.987   .     S
Cr77   O82     1.987   .     S
Cr77   O83     1.987   .     S
Cr77   O86     1.963   .     S
Cr77   O87     1.966   .     S
O78    C90     1.267   .     S
O79    C91     1.279   .     S
O80    Mn233   2.394   .     S
O80    C90     1.243   .     S
O81    Mn233   2.235   .     S
O81    C91     1.239   .     S
O84    Mn233   2.528   1_565 S
O84    C92     1.215   .     S
O85    Mn233   2.223   1_565 S
O85    C93     1.242   .     S
O86    C94     1.282   .     S
O87    C95     1.280   .     S
O88    C94     1.206   .     S
O89    C95     1.226   .     S
C90    C91     1.553   .     S
C92    C93     1.522   .     S
C94    C95     1.573   .     S
Cr96   O97     1.975   1_554 S
Cr96   O98     1.987   .     S
Cr96   O101    1.987   .     S
Cr96   O102    1.987   1_554 S
Cr96   O105    1.963   .     S
Cr96   O106    1.966   1_554 S
O97    Cr96    1.975   1_556 S
O97    C109    1.267   .     S
O98    C110    1.279   1_554 S
O99    Mn234   2.394   .     S
O99    C109    1.243   .     S
O100   Mn234   2.235   1_554 S
O100   C110    1.239   1_554 S
O102   Cr96    1.987   1_556 S
O102   C17     1.278   1_556 S
O103   Mn234   2.528   1_455 S
O103   C111    1.215   .     S
O104   Mn234   2.223   1_455 S
O104   C112    1.242   .     S
O105   C113    1.282   .     S
O106   Cr96    1.966   1_556 S
O106   C114    1.280   .     S
O107   C113    1.206   .     S
O108   C114    1.226   .     S
C109   C110    1.553   .     S
C110   O98     1.279   1_556 S
C110   O100    1.239   1_556 S
C111   C112    1.522   .     S
C113   C114    1.573   1_554 S
C114   C113    1.573   1_556 S
Cr115  O116    1.975   .     S
Cr115  O117    1.987   .     S
Cr115  O120    1.987   .     S
Cr115  O121    1.987   .     S
Cr115  O124    1.963   .     S
Cr115  O125    1.966   .     S
O116   C128    1.267   .     S
O117   C129    1.279   .     S
O118   Mn232   2.394   .     S
O118   C128    1.243   .     S
O119   Mn232   2.235   .     S
O119   C129    1.239   .     S
O120   C206    1.313   .     S
O121   C207    1.278   .     S
O122   Mn232   2.528   .     S
O122   C130    1.215   .     S
O123   Mn232   2.223   .     S
O123   C131    1.242   .     S
O124   C132    1.282   .     S
O125   C133    1.280   .     S
O126   C132    1.206   .     S
O127   C133    1.226   .     S
C128   C129    1.553   .     S
C130   O215    1.313   .     S
C130   C131    1.522   .     S
C131   O216    1.278   .     S
C132   C133    1.573   .     S
Cr134  O135    1.975   .     S
Cr134  O136    1.987   .     S
Cr134  O139    1.987   .     S
Cr134  O140    1.987   .     S
Cr134  O143    1.963   .     S
Cr134  O144    1.966   .     S
O135   C147    1.267   .     S
O136   C148    1.279   .     S
O137   Mn234   2.394   .     S
O137   C147    1.243   .     S
O138   Mn234   2.235   .     S
O138   C148    1.239   .     S
O139   C225    1.313   .     S
O140   C226    1.278   .     S
O141   Mn234   2.528   1_455 S
O141   C149    1.215   .     S
O142   Mn234   2.223   1_454 S
O142   C150    1.242   1_554 S
O143   C151    1.282   .     S
O144   C152    1.280   .     S
O145   C151    1.206   .     S
O146   C152    1.226   .     S
C147   C148    1.553   .     S
C149   O177    1.313   .     S
C149   C150    1.522   .     S
C150   O142    1.242   1_556 S
C150   O178    1.278   1_556 S
C151   C152    1.573   .     S
Cr153  O154    1.975   .     S
Cr153  O155    1.987   .     S
Cr153  O158    1.987   .     S
Cr153  O159    1.987   .     S
Cr153  O162    1.963   .     S
Cr153  O163    1.966   .     S
O154   C166    1.267   .     S
O155   C167    1.279   .     S
O156   Mn233   2.394   .     S
O156   C166    1.243   .     S
O157   Mn233   2.235   .     S
O157   C167    1.239   .     S
O158   C187    1.313   .     S
O159   C188    1.278   .     S
O160   Mn233   2.528   1_565 S
O160   C168    1.215   .     S
O161   Mn233   2.223   1_565 S
O161   C169    1.242   .     S
O162   C170    1.282   .     S
O163   C171    1.280   .     S
O164   C170    1.206   .     S
O165   C171    1.226   .     S
C166   C167    1.553   .     S
C168   O196    1.313   .     S
C168   C169    1.522   .     S
C169   O197    1.278   .     S
C170   C171    1.573   .     S
Cr172  O173    1.975   1_556 S
Cr172  O174    1.987   .     S
Cr172  O177    1.987   .     S
Cr172  O178    1.987   1_556 S
Cr172  O181    1.963   .     S
Cr172  O182    1.966   1_556 S
O173   Cr172   1.975   1_554 S
O173   C185    1.267   .     S
O174   C186    1.279   1_556 S
O175   Mn229   2.394   .     S
O175   C185    1.243   .     S
O176   Mn229   2.235   1_556 S
O176   C186    1.239   1_556 S
O178   Cr172   1.987   1_554 S
O178   C150    1.278   1_554 S
O179   Mn229   2.528   .     S
O179   C187    1.215   .     S
O180   Mn229   2.223   .     S
O180   C188    1.242   .     S
O181   C189    1.282   .     S
O182   Cr172   1.966   1_554 S
O182   C190    1.280   .     S
O183   C189    1.206   .     S
O184   C190    1.226   .     S
C185   C186    1.553   .     S
C186   O174    1.279   1_554 S
C186   O176    1.239   1_554 S
C187   C188    1.522   .     S
C189   C190    1.573   1_556 S
C190   C189    1.573   1_554 S
Cr191  O192    1.975   .     S
Cr191  O193    1.987   .     S
Cr191  O196    1.987   .     S
Cr191  O197    1.987   .     S
Cr191  O200    1.963   .     S
Cr191  O201    1.966   .     S
O192   C204    1.267   .     S
O193   C205    1.279   .     S
O194   Mn231   2.394   .     S
O194   C204    1.243   .     S
O195   Mn231   2.235   .     S
O195   C205    1.239   .     S
O198   Mn231   2.528   1_655 S
O198   C206    1.215   .     S
O199   Mn231   2.223   1_655 S
O199   C207    1.242   .     S
O200   C208    1.282   .     S
O201   C209    1.280   .     S
O202   C208    1.206   .     S
O203   C209    1.226   .     S
C204   C205    1.553   .     S
C206   C207    1.522   .     S
C208   C209    1.573   .     S
Cr210  O211    1.975   .     S
Cr210  O212    1.987   .     S
Cr210  O215    1.987   .     S
Cr210  O216    1.987   .     S
Cr210  O219    1.963   .     S
Cr210  O220    1.966   .     S
O211   C223    1.267   .     S
O212   C224    1.279   .     S
O213   Mn230   2.394   .     S
O213   C223    1.243   .     S
O214   Mn230   2.235   .     S
O214   C224    1.239   .     S
O217   Mn230   2.528   1_545 S
O217   C225    1.215   .     S
O218   Mn230   2.223   1_545 S
O218   C226    1.242   .     S
O219   C227    1.282   .     S
O220   C228    1.280   .     S
O221   C227    1.206   .     S
O222   C228    1.226   .     S
C223   C224    1.553   .     S
C225   C226    1.522   .     S
C227   C228    1.573   .     S
Mn229  O176    2.235   1_554 S
Mn229  O9      2.223   1_554 S
Mn230  O27     2.528   1_565 S
Mn230  O217    2.528   1_565 S
Mn230  O28     2.223   1_565 S
Mn230  O218    2.223   1_565 S
Mn231  O46     2.528   1_455 S
Mn231  O198    2.528   1_455 S
Mn231  O47     2.223   1_455 S
Mn231  O199    2.223   1_455 S
Mn233  O84     2.528   1_545 S
Mn233  O160    2.528   1_545 S
Mn233  O85     2.223   1_545 S
Mn233  O161    2.223   1_545 S
Mn234  O100    2.235   1_556 S
Mn234  O103    2.528   1_655 S
Mn234  O141    2.528   1_655 S
Mn234  O104    2.223   1_655 S
Mn234  O142    2.223   1_656 S
