data_KECWEY_FSR
_audit_creation_date              2024-06-11
_audit_creation_method            'Materials Studio'
_symmetry_space_group_name_H-M    'P1'
_symmetry_Int_Tables_number       1
_symmetry_cell_setting            triclinic
loop_
_symmetry_equiv_pos_as_xyz
  x,y,z
_cell_length_a                    10.4801
_cell_length_b                    17.4762
_cell_length_c                    7.0392
_cell_angle_alpha                 90.0000
_cell_angle_beta                  90.0000
_cell_angle_gamma                 90.0000
loop_
_atom_site_label
_atom_site_type_symbol
_atom_site_fract_x
_atom_site_fract_y
_atom_site_fract_z
_atom_site_U_iso_or_equiv
_atom_site_adp_type
_atom_site_occupancy
O1     O     0.15800   0.50020   0.92520   0.00000  Uiso   1.00
P2     P     0.62190   0.34660   0.83630   0.00000  Uiso   1.00
O3     O     0.63880   0.34120   0.04400   0.00000  Uiso   1.00
O4     O     0.90870   0.32730   0.04450   0.00000  Uiso   1.00
H5     H     0.90900   0.36500   0.97000   0.00000  Uiso   1.00
H6     H     0.84400   0.31800   0.00700   0.00000  Uiso   1.00
H7     H     0.65470   0.43860   0.08470   0.00000  Uiso   1.00
H8     H     0.65860   0.29730   0.07270   0.00000  Uiso   1.00
O9     O     0.58230   0.43040   0.12400   0.00000  Uiso   1.00
H10    H     0.55700   0.38500   0.10000   0.00000  Uiso   1.00
O11    O     0.84200   0.49980   0.42520   0.00000  Uiso   1.00
P12    P     0.37810   0.65340   0.33630   0.00000  Uiso   1.00
O13    O     0.36120   0.65880   0.54400   0.00000  Uiso   1.00
O14    O     0.09130   0.67270   0.54450   0.00000  Uiso   1.00
H15    H     0.09100   0.63500   0.47000   0.00000  Uiso   1.00
H16    H     0.15600   0.68200   0.50700   0.00000  Uiso   1.00
H17    H     0.34530   0.56140   0.58470   0.00000  Uiso   1.00
H18    H     0.34140   0.70270   0.57270   0.00000  Uiso   1.00
O19    O     0.41770   0.56960   0.62400   0.00000  Uiso   1.00
H20    H     0.44300   0.61500   0.60000   0.00000  Uiso   1.00
O21    O     0.84200   0.00020   0.57480   0.00000  Uiso   1.00
P22    P     0.37810   0.84660   0.66370   0.00000  Uiso   1.00
O23    O     0.36120   0.84120   0.45600   0.00000  Uiso   1.00
O24    O     0.09130   0.82730   0.45550   0.00000  Uiso   1.00
H25    H     0.09100   0.86500   0.53000   0.00000  Uiso   1.00
H26    H     0.15600   0.81800   0.49300   0.00000  Uiso   1.00
H27    H     0.34530   0.93860   0.41530   0.00000  Uiso   1.00
H28    H     0.34140   0.79730   0.42730   0.00000  Uiso   1.00
O29    O     0.41770   0.93040   0.37600   0.00000  Uiso   1.00
H30    H     0.44300   0.88500   0.40000   0.00000  Uiso   1.00
O31    O     0.15800   0.99980   0.07480   0.00000  Uiso   1.00
P32    P     0.62190   0.15340   0.16370   0.00000  Uiso   1.00
O33    O     0.63880   0.15880   0.95600   0.00000  Uiso   1.00
O34    O     0.90870   0.17270   0.95550   0.00000  Uiso   1.00
H35    H     0.90900   0.13500   0.03000   0.00000  Uiso   1.00
H36    H     0.84400   0.18200   0.99300   0.00000  Uiso   1.00
H37    H     0.65470   0.06140   0.91530   0.00000  Uiso   1.00
H38    H     0.65860   0.20270   0.92730   0.00000  Uiso   1.00
O39    O     0.58230   0.06960   0.87600   0.00000  Uiso   1.00
H40    H     0.55700   0.11500   0.90000   0.00000  Uiso   1.00
O41    O     0.84200   0.49980   0.07480   0.00000  Uiso   1.00
P42    P     0.37810   0.65340   0.16370   0.00000  Uiso   1.00
O43    O     0.36120   0.65880   0.95600   0.00000  Uiso   1.00
O44    O     0.09130   0.67270   0.95550   0.00000  Uiso   1.00
H45    H     0.09100   0.63500   0.03000   0.00000  Uiso   1.00
H46    H     0.15600   0.68200   0.99300   0.00000  Uiso   1.00
H47    H     0.34530   0.56140   0.91530   0.00000  Uiso   1.00
H48    H     0.34140   0.70270   0.92730   0.00000  Uiso   1.00
O49    O     0.41770   0.56960   0.87600   0.00000  Uiso   1.00
H50    H     0.44300   0.61500   0.90000   0.00000  Uiso   1.00
O51    O     0.15800   0.50020   0.57480   0.00000  Uiso   1.00
P52    P     0.62190   0.34660   0.66370   0.00000  Uiso   1.00
O53    O     0.63880   0.34120   0.45600   0.00000  Uiso   1.00
O54    O     0.90870   0.32730   0.45550   0.00000  Uiso   1.00
H55    H     0.90900   0.36500   0.53000   0.00000  Uiso   1.00
H56    H     0.84400   0.31800   0.49300   0.00000  Uiso   1.00
H57    H     0.65470   0.43860   0.41530   0.00000  Uiso   1.00
H58    H     0.65860   0.29730   0.42730   0.00000  Uiso   1.00
O59    O     0.58230   0.43040   0.37600   0.00000  Uiso   1.00
H60    H     0.55700   0.38500   0.40000   0.00000  Uiso   1.00
O61    O     0.15800   0.99980   0.42520   0.00000  Uiso   1.00
P62    P     0.62190   0.15340   0.33630   0.00000  Uiso   1.00
O63    O     0.63880   0.15880   0.54400   0.00000  Uiso   1.00
O64    O     0.90870   0.17270   0.54450   0.00000  Uiso   1.00
H65    H     0.90900   0.13500   0.47000   0.00000  Uiso   1.00
H66    H     0.84400   0.18200   0.50700   0.00000  Uiso   1.00
H67    H     0.65470   0.06140   0.58470   0.00000  Uiso   1.00
H68    H     0.65860   0.20270   0.57270   0.00000  Uiso   1.00
O69    O     0.58230   0.06960   0.62400   0.00000  Uiso   1.00
H70    H     0.55700   0.11500   0.60000   0.00000  Uiso   1.00
O71    O     0.84200   0.00020   0.92520   0.00000  Uiso   1.00
P72    P     0.37810   0.84660   0.83630   0.00000  Uiso   1.00
O73    O     0.36120   0.84120   0.04400   0.00000  Uiso   1.00
O74    O     0.09130   0.82730   0.04450   0.00000  Uiso   1.00
H75    H     0.09100   0.86500   0.97000   0.00000  Uiso   1.00
H76    H     0.15600   0.81800   0.00700   0.00000  Uiso   1.00
H77    H     0.34530   0.93860   0.08470   0.00000  Uiso   1.00
H78    H     0.34140   0.79730   0.07270   0.00000  Uiso   1.00
O79    O     0.41770   0.93040   0.12400   0.00000  Uiso   1.00
H80    H     0.44300   0.88500   0.10000   0.00000  Uiso   1.00
Cd81   Cd    0.82484   0.50296   0.75000   0.00000  Uiso   1.00
O82    O     0.66080   0.42080   0.75000   0.00000  Uiso   1.00
O83    O     0.99150   0.41810   0.75000   0.00000  Uiso   1.00
O84    O     0.33210   0.10040   0.75000   0.00000  Uiso   1.00
O85    O     0.13160   0.13420   0.75000   0.00000  Uiso   1.00
O86    O     0.69890   0.27560   0.75000   0.00000  Uiso   1.00
C87    C     0.45720   0.32730   0.75000   0.00000  Uiso   1.00
C88    C     0.41270   0.25190   0.75000   0.00000  Uiso   1.00
C89    C     0.36580   0.38620   0.75000   0.00000  Uiso   1.00
H90    H     0.47170   0.21220   0.75000   0.00000  Uiso   1.00
C91    C     0.28670   0.23490   0.75000   0.00000  Uiso   1.00
C92    C     0.23750   0.36890   0.75000   0.00000  Uiso   1.00
H93    H     0.39200   0.43700   0.75000   0.00000  Uiso   1.00
C94    C     0.19700   0.29330   0.75000   0.00000  Uiso   1.00
C95    C     0.24780   0.15150   0.75000   0.00000  Uiso   1.00
P96    P     0.12870   0.45007   0.75000   0.00000  Uiso   1.00
H97    H     0.11030   0.28190   0.75000   0.00000  Uiso   1.00
Cd98   Cd    0.17516   0.49704   0.25000   0.00000  Uiso   1.00
O99    O     0.33920   0.57920   0.25000   0.00000  Uiso   1.00
O100   O     0.00850   0.58190   0.25000   0.00000  Uiso   1.00
O101   O     0.66790   0.89960   0.25000   0.00000  Uiso   1.00
O102   O     0.86840   0.86580   0.25000   0.00000  Uiso   1.00
O103   O     0.30110   0.72440   0.25000   0.00000  Uiso   1.00
C104   C     0.54280   0.67270   0.25000   0.00000  Uiso   1.00
C105   C     0.58730   0.74810   0.25000   0.00000  Uiso   1.00
C106   C     0.63420   0.61380   0.25000   0.00000  Uiso   1.00
H107   H     0.52830   0.78780   0.25000   0.00000  Uiso   1.00
C108   C     0.71330   0.76510   0.25000   0.00000  Uiso   1.00
C109   C     0.76250   0.63110   0.25000   0.00000  Uiso   1.00
H110   H     0.60800   0.56300   0.25000   0.00000  Uiso   1.00
C111   C     0.80300   0.70670   0.25000   0.00000  Uiso   1.00
C112   C     0.75220   0.84850   0.25000   0.00000  Uiso   1.00
P113   P     0.87130   0.54993   0.25000   0.00000  Uiso   1.00
H114   H     0.88970   0.71810   0.25000   0.00000  Uiso   1.00
Cd115  Cd    0.17516   0.00296   0.75000   0.00000  Uiso   1.00
O116   O     0.33920   0.92080   0.75000   0.00000  Uiso   1.00
O117   O     0.00850   0.91810   0.75000   0.00000  Uiso   1.00
O118   O     0.66790   0.60040   0.75000   0.00000  Uiso   1.00
O119   O     0.86840   0.63420   0.75000   0.00000  Uiso   1.00
O120   O     0.30110   0.77560   0.75000   0.00000  Uiso   1.00
C121   C     0.54280   0.82730   0.75000   0.00000  Uiso   1.00
C122   C     0.58730   0.75190   0.75000   0.00000  Uiso   1.00
C123   C     0.63420   0.88620   0.75000   0.00000  Uiso   1.00
H124   H     0.52830   0.71220   0.75000   0.00000  Uiso   1.00
C125   C     0.71330   0.73490   0.75000   0.00000  Uiso   1.00
C126   C     0.76250   0.86890   0.75000   0.00000  Uiso   1.00
H127   H     0.60800   0.93700   0.75000   0.00000  Uiso   1.00
C128   C     0.80300   0.79330   0.75000   0.00000  Uiso   1.00
C129   C     0.75220   0.65150   0.75000   0.00000  Uiso   1.00
P130   P     0.87130   0.95007   0.75000   0.00000  Uiso   1.00
H131   H     0.88970   0.78190   0.75000   0.00000  Uiso   1.00
Cd132  Cd    0.82484   0.99704   0.25000   0.00000  Uiso   1.00
O133   O     0.66080   0.07920   0.25000   0.00000  Uiso   1.00
O134   O     0.99150   0.08190   0.25000   0.00000  Uiso   1.00
O135   O     0.33210   0.39960   0.25000   0.00000  Uiso   1.00
O136   O     0.13160   0.36580   0.25000   0.00000  Uiso   1.00
O137   O     0.69890   0.22440   0.25000   0.00000  Uiso   1.00
C138   C     0.45720   0.17270   0.25000   0.00000  Uiso   1.00
C139   C     0.41270   0.24810   0.25000   0.00000  Uiso   1.00
C140   C     0.36580   0.11380   0.25000   0.00000  Uiso   1.00
H141   H     0.47170   0.28780   0.25000   0.00000  Uiso   1.00
C142   C     0.28670   0.26510   0.25000   0.00000  Uiso   1.00
C143   C     0.23750   0.13110   0.25000   0.00000  Uiso   1.00
H144   H     0.39200   0.06300   0.25000   0.00000  Uiso   1.00
C145   C     0.19700   0.20670   0.25000   0.00000  Uiso   1.00
C146   C     0.24780   0.34850   0.25000   0.00000  Uiso   1.00
P147   P     0.12870   0.04993   0.25000   0.00000  Uiso   1.00
H148   H     0.11030   0.21810   0.25000   0.00000  Uiso   1.00
Cd149  Cd    0.77274   0.39257   0.25000   0.00000  Uiso   1.00
Cd150  Cd    0.22726   0.60743   0.75000   0.00000  Uiso   1.00
Cd151  Cd    0.22726   0.89257   0.25000   0.00000  Uiso   1.00
Cd152  Cd    0.77274   0.10743   0.75000   0.00000  Uiso   1.00
loop_
_geom_bond_atom_site_label_1
_geom_bond_atom_site_label_2
_geom_bond_distance
_geom_bond_site_symmetry_2
_ccdc_geom_bond_type
O1     P96     1.544   .     S
O1     Cd98    2.294   1_556 S
O1     Cd150   2.358   .     S
P2     O82     1.489   .     S
P2     O86     1.600   .     S
P2     C87     1.861   .     S
P2     O3      1.476   1_556 S
P2     P52     1.215   .     S
O3     Cd149   2.209   .     S
O3     P2      1.476   1_554 S
O3     H8      0.820   .     S
O4     Cd149   2.329   .     S
O4     H5      0.842   1_554 S
O4     H6      0.746   .     S
H5     O4      0.842   1_556 S
H7     O9      0.820   .     S
O9     Cd149   2.282   .     S
O9     H10     0.853   .     S
O11    P113    1.544   .     S
O11    Cd81    2.294   .     S
O11    Cd149   2.358   .     S
P12    O99     1.489   .     S
P12    O103    1.600   .     S
P12    C104    1.861   .     S
P12    O13     1.476   .     S
P12    P42     1.215   .     S
O13    Cd150   2.209   .     S
O13    H18     0.820   .     S
O14    Cd150   2.329   .     S
O14    H15     0.842   .     S
O14    H16     0.746   .     S
H17    O19     0.820   .     S
O19    Cd150   2.282   .     S
O19    H20     0.853   .     S
O21    P130    1.544   1_545 S
O21    Cd132   2.294   1_545 S
O21    Cd152   2.358   .     S
P22    O116    1.489   .     S
P22    O120    1.600   .     S
P22    C121    1.861   .     S
P22    O23     1.476   .     S
P22    P72     1.215   .     S
O23    Cd151   2.209   .     S
O23    H28     0.820   .     S
O24    Cd151   2.329   .     S
O24    H25     0.842   .     S
O24    H26     0.746   .     S
H27    O29     0.820   .     S
O29    Cd151   2.282   .     S
O29    H30     0.853   .     S
O31    P147    1.544   1_565 S
O31    Cd115   2.294   1_564 S
O31    Cd151   2.358   .     S
P32    O133    1.489   .     S
P32    O137    1.600   .     S
P32    C138    1.861   .     S
P32    O33     1.476   1_554 S
P32    P62     1.215   .     S
O33    Cd152   2.209   .     S
O33    P32     1.476   1_556 S
O33    H38     0.820   .     S
O34    Cd152   2.329   .     S
O34    H35     0.842   1_556 S
O34    H36     0.746   .     S
H35    O34     0.842   1_554 S
H37    O39     0.820   .     S
O39    Cd152   2.282   .     S
O39    H40     0.853   .     S
O41    P113    1.544   .     S
O41    Cd81    2.294   1_554 S
O41    Cd149   2.358   .     S
P42    O99     1.489   .     S
P42    O103    1.600   .     S
P42    C104    1.861   .     S
P42    O43     1.476   1_554 S
O43    Cd150   2.209   .     S
O43    P42     1.476   1_556 S
O43    H48     0.820   .     S
O44    Cd150   2.329   .     S
O44    H45     0.842   1_556 S
O44    H46     0.746   .     S
H45    O44     0.842   1_554 S
H47    O49     0.820   .     S
O49    Cd150   2.282   .     S
O49    H50     0.853   .     S
O51    P96     1.544   .     S
O51    Cd98    2.294   .     S
O51    Cd150   2.358   .     S
P52    O82     1.489   .     S
P52    O86     1.600   .     S
P52    C87     1.861   .     S
P52    O53     1.476   .     S
O53    Cd149   2.209   .     S
O53    H58     0.820   .     S
O54    Cd149   2.329   .     S
O54    H55     0.842   .     S
O54    H56     0.746   .     S
H57    O59     0.820   .     S
O59    Cd149   2.282   .     S
O59    H60     0.853   .     S
O61    P147    1.544   1_565 S
O61    Cd115   2.294   1_565 S
O61    Cd151   2.358   .     S
P62    O133    1.489   .     S
P62    O137    1.600   .     S
P62    C138    1.861   .     S
P62    O63     1.476   .     S
O63    Cd152   2.209   .     S
O63    H68     0.820   .     S
O64    Cd152   2.329   .     S
O64    H65     0.842   .     S
O64    H66     0.746   .     S
H67    O69     0.820   .     S
O69    Cd152   2.282   .     S
O69    H70     0.853   .     S
O71    P130    1.544   1_545 S
O71    Cd132   2.294   1_546 S
O71    Cd152   2.358   .     S
P72    O116    1.489   .     S
P72    O120    1.600   .     S
P72    C121    1.861   .     S
P72    O73     1.476   1_556 S
O73    Cd151   2.209   .     S
O73    P72     1.476   1_554 S
O73    H78     0.820   .     S
O74    Cd151   2.329   .     S
O74    H75     0.842   1_554 S
O74    H76     0.746   .     S
H75    O74     0.842   1_556 S
H77    O79     0.820   .     S
O79    Cd151   2.282   .     S
O79    H80     0.853   .     S
Cd81   O82     2.240   .     S
Cd81   O83     2.291   .     S
Cd81   O41     2.294   1_556 S
Cd81   O118    2.367   .     S
Cd81   O119    2.339   .     S
O83    P96     1.543   1_655 S
O84    C95     1.256   .     S
O84    Cd115   2.367   .     S
O85    C95     1.255   .     S
O85    Cd115   2.339   .     S
C87    C88     1.398   .     S
C87    C89     1.406   .     S
C88    H90     0.929   .     S
C88    C91     1.354   .     S
C89    C92     1.378   .     S
C89    H93     0.929   .     S
C91    C94     1.388   .     S
C91    C95     1.513   .     S
C92    P96     1.820   .     S
C92    C94     1.388   .     S
C94    H97     0.930   .     S
P96    O83     1.543   1_455 S
Cd98   O99     2.240   .     S
Cd98   O100    2.291   .     S
Cd98   O1      2.294   1_554 S
Cd98   O135    2.367   .     S
Cd98   O136    2.339   .     S
O100   P113    1.543   1_455 S
O101   C112    1.256   .     S
O101   Cd132   2.367   .     S
O102   C112    1.255   .     S
O102   Cd132   2.339   .     S
C104   C105    1.398   .     S
C104   C106    1.406   .     S
C105   H107    0.929   .     S
C105   C108    1.354   .     S
C106   C109    1.378   .     S
C106   H110    0.929   .     S
C108   C111    1.388   .     S
C108   C112    1.513   .     S
C109   P113    1.820   .     S
C109   C111    1.388   .     S
C111   H114    0.930   .     S
P113   O100    1.543   1_655 S
Cd115  O116    2.240   1_545 S
Cd115  O117    2.291   1_545 S
Cd115  O31     2.294   1_546 S
Cd115  O61     2.294   1_545 S
O116   Cd115   2.240   1_565 S
O117   P130    1.543   1_455 S
O117   Cd115   2.291   1_565 S
O118   C129    1.256   .     S
O119   C129    1.255   .     S
C121   C122    1.398   .     S
C121   C123    1.406   .     S
C122   H124    0.929   .     S
C122   C125    1.354   .     S
C123   C126    1.378   .     S
C123   H127    0.929   .     S
C125   C128    1.388   .     S
C125   C129    1.513   .     S
C126   P130    1.820   .     S
C126   C128    1.388   .     S
C128   H131    0.930   .     S
P130   O117    1.543   1_655 S
P130   O21     1.544   1_565 S
P130   O71     1.544   1_565 S
Cd132  O133    2.240   1_565 S
Cd132  O134    2.291   1_565 S
Cd132  O21     2.294   1_565 S
Cd132  O71     2.294   1_564 S
O133   Cd132   2.240   1_545 S
O134   P147    1.543   1_655 S
O134   Cd132   2.291   1_545 S
O135   C146    1.256   .     S
O136   C146    1.255   .     S
C138   C139    1.398   .     S
C138   C140    1.406   .     S
C139   H141    0.929   .     S
C139   C142    1.354   .     S
C140   C143    1.378   .     S
C140   H144    0.929   .     S
C142   C145    1.388   .     S
C142   C146    1.513   .     S
C143   P147    1.820   .     S
C143   C145    1.388   .     S
C145   H148    0.930   .     S
P147   O134    1.543   1_455 S
P147   O31     1.544   1_545 S
P147   O61     1.544   1_545 S
