data_KEGKUF_FSR
_audit_creation_date              2024-06-11
_audit_creation_method            'Materials Studio'
_symmetry_space_group_name_H-M    'P1'
_symmetry_Int_Tables_number       1
_symmetry_cell_setting            triclinic
loop_
_symmetry_equiv_pos_as_xyz
  x,y,z
_cell_length_a                    17.7506
_cell_length_b                    17.7506
_cell_length_c                    22.4863
_cell_angle_alpha                 90.0000
_cell_angle_beta                  90.0000
_cell_angle_gamma                 90.0000
loop_
_atom_site_label
_atom_site_type_symbol
_atom_site_fract_x
_atom_site_fract_y
_atom_site_fract_z
_atom_site_U_iso_or_equiv
_atom_site_adp_type
_atom_site_occupancy
C1     C     0.62380   0.62240   0.64370   0.00000  Uiso   1.00
C2     C     0.66510   0.66340   0.69050   0.00000  Uiso   1.00
C3     C     0.71690   0.71650   0.67630   0.00000  Uiso   1.00
H4     H     0.72580   0.72670   0.63550   0.00000  Uiso   1.00
C5     C     0.74170   0.74280   0.78110   0.00000  Uiso   1.00
C6     C     0.68900   0.68740   0.79720   0.00000  Uiso   1.00
C7     C     0.65070   0.64940   0.74930   0.00000  Uiso   1.00
H8     H     0.61360   0.61280   0.75900   0.00000  Uiso   1.00
O9     O     0.38830   0.50020   0.55980   0.00000  Uiso   1.00
O10    O     0.63920   0.63800   0.59070   0.00000  Uiso   1.00
O11    O     0.57480   0.57430   0.66110   0.00000  Uiso   1.00
S12    S     0.66700   0.66660   0.87320   0.00000  Uiso   1.00
O13    O     0.64470   0.73340   0.89790   0.00000  Uiso   1.00
O14    O     0.60720   0.60880   0.86760   0.00000  Uiso   1.00
O15    O     0.72800   0.64580   0.89970   0.00000  Uiso   1.00
C16    C     0.12380   0.12240   0.14370   0.00000  Uiso   1.00
C17    C     0.16510   0.16340   0.19050   0.00000  Uiso   1.00
C18    C     0.21690   0.21650   0.17630   0.00000  Uiso   1.00
H19    H     0.22580   0.22670   0.13550   0.00000  Uiso   1.00
C20    C     0.24170   0.24280   0.28110   0.00000  Uiso   1.00
C21    C     0.18900   0.18740   0.29720   0.00000  Uiso   1.00
C22    C     0.15070   0.14940   0.24930   0.00000  Uiso   1.00
H23    H     0.11360   0.11280   0.25900   0.00000  Uiso   1.00
O24    O     0.88830   0.00020   0.05980   0.00000  Uiso   1.00
O25    O     0.13920   0.13800   0.09070   0.00000  Uiso   1.00
O26    O     0.07480   0.07430   0.16110   0.00000  Uiso   1.00
S27    S     0.16700   0.16660   0.37320   0.00000  Uiso   1.00
O28    O     0.14470   0.23340   0.39790   0.00000  Uiso   1.00
O29    O     0.10720   0.10880   0.36760   0.00000  Uiso   1.00
O30    O     0.22800   0.14580   0.39970   0.00000  Uiso   1.00
C31    C     0.37620   0.37760   0.64370   0.00000  Uiso   1.00
C32    C     0.33490   0.33660   0.69050   0.00000  Uiso   1.00
C33    C     0.28310   0.28350   0.67630   0.00000  Uiso   1.00
H34    H     0.27420   0.27330   0.63550   0.00000  Uiso   1.00
C35    C     0.25830   0.25720   0.78110   0.00000  Uiso   1.00
C36    C     0.31100   0.31260   0.79720   0.00000  Uiso   1.00
C37    C     0.34930   0.35060   0.74930   0.00000  Uiso   1.00
H38    H     0.38640   0.38720   0.75900   0.00000  Uiso   1.00
O39    O     0.61170   0.49980   0.55980   0.00000  Uiso   1.00
O40    O     0.36080   0.36200   0.59070   0.00000  Uiso   1.00
O41    O     0.42520   0.42570   0.66110   0.00000  Uiso   1.00
S42    S     0.33300   0.33340   0.87320   0.00000  Uiso   1.00
O43    O     0.35530   0.26660   0.89790   0.00000  Uiso   1.00
O44    O     0.39280   0.39120   0.86760   0.00000  Uiso   1.00
O45    O     0.27200   0.35420   0.89970   0.00000  Uiso   1.00
C46    C     0.87620   0.87760   0.14370   0.00000  Uiso   1.00
C47    C     0.83490   0.83660   0.19050   0.00000  Uiso   1.00
C48    C     0.78310   0.78350   0.17630   0.00000  Uiso   1.00
H49    H     0.77420   0.77330   0.13550   0.00000  Uiso   1.00
C50    C     0.75830   0.75720   0.28110   0.00000  Uiso   1.00
C51    C     0.81100   0.81260   0.29720   0.00000  Uiso   1.00
C52    C     0.84930   0.85060   0.24930   0.00000  Uiso   1.00
H53    H     0.88640   0.88720   0.25900   0.00000  Uiso   1.00
O54    O     0.11170   0.99980   0.05980   0.00000  Uiso   1.00
O55    O     0.86080   0.86200   0.09070   0.00000  Uiso   1.00
O56    O     0.92520   0.92570   0.16110   0.00000  Uiso   1.00
S57    S     0.83300   0.83340   0.37320   0.00000  Uiso   1.00
O58    O     0.85530   0.76660   0.39790   0.00000  Uiso   1.00
O59    O     0.89280   0.89120   0.36760   0.00000  Uiso   1.00
O60    O     0.77200   0.85420   0.39970   0.00000  Uiso   1.00
C61    C     0.37760   0.62380   0.64370   0.00000  Uiso   1.00
C62    C     0.33660   0.66510   0.69050   0.00000  Uiso   1.00
C63    C     0.28350   0.71690   0.67630   0.00000  Uiso   1.00
H64    H     0.27330   0.72580   0.63550   0.00000  Uiso   1.00
C65    C     0.25720   0.74170   0.78110   0.00000  Uiso   1.00
C66    C     0.31260   0.68900   0.79720   0.00000  Uiso   1.00
C67    C     0.35060   0.65070   0.74930   0.00000  Uiso   1.00
H68    H     0.38720   0.61360   0.75900   0.00000  Uiso   1.00
O69    O     0.49980   0.38830   0.55980   0.00000  Uiso   1.00
O70    O     0.36200   0.63920   0.59070   0.00000  Uiso   1.00
O71    O     0.42570   0.57480   0.66110   0.00000  Uiso   1.00
S72    S     0.33340   0.66700   0.87320   0.00000  Uiso   1.00
O73    O     0.26660   0.64470   0.89790   0.00000  Uiso   1.00
O74    O     0.39120   0.60720   0.86760   0.00000  Uiso   1.00
O75    O     0.35420   0.72800   0.89970   0.00000  Uiso   1.00
C76    C     0.87760   0.12380   0.14370   0.00000  Uiso   1.00
C77    C     0.83660   0.16510   0.19050   0.00000  Uiso   1.00
C78    C     0.78350   0.21690   0.17630   0.00000  Uiso   1.00
H79    H     0.77330   0.22580   0.13550   0.00000  Uiso   1.00
C80    C     0.75720   0.24170   0.28110   0.00000  Uiso   1.00
C81    C     0.81260   0.18900   0.29720   0.00000  Uiso   1.00
C82    C     0.85060   0.15070   0.24930   0.00000  Uiso   1.00
H83    H     0.88720   0.11360   0.25900   0.00000  Uiso   1.00
O84    O     0.99980   0.88830   0.05980   0.00000  Uiso   1.00
O85    O     0.86200   0.13920   0.09070   0.00000  Uiso   1.00
O86    O     0.92570   0.07480   0.16110   0.00000  Uiso   1.00
S87    S     0.83340   0.16700   0.37320   0.00000  Uiso   1.00
O88    O     0.76660   0.14470   0.39790   0.00000  Uiso   1.00
O89    O     0.89120   0.10720   0.36760   0.00000  Uiso   1.00
O90    O     0.85420   0.22800   0.39970   0.00000  Uiso   1.00
C91    C     0.62240   0.37620   0.64370   0.00000  Uiso   1.00
C92    C     0.66340   0.33490   0.69050   0.00000  Uiso   1.00
C93    C     0.71650   0.28310   0.67630   0.00000  Uiso   1.00
H94    H     0.72670   0.27420   0.63550   0.00000  Uiso   1.00
C95    C     0.74280   0.25830   0.78110   0.00000  Uiso   1.00
C96    C     0.68740   0.31100   0.79720   0.00000  Uiso   1.00
C97    C     0.64940   0.34930   0.74930   0.00000  Uiso   1.00
H98    H     0.61280   0.38640   0.75900   0.00000  Uiso   1.00
O99    O     0.50020   0.61170   0.55980   0.00000  Uiso   1.00
O100   O     0.63800   0.36080   0.59070   0.00000  Uiso   1.00
O101   O     0.57430   0.42520   0.66110   0.00000  Uiso   1.00
S102   S     0.66660   0.33300   0.87320   0.00000  Uiso   1.00
O103   O     0.73340   0.35530   0.89790   0.00000  Uiso   1.00
O104   O     0.60880   0.39280   0.86760   0.00000  Uiso   1.00
O105   O     0.64580   0.27200   0.89970   0.00000  Uiso   1.00
C106   C     0.12240   0.87620   0.14370   0.00000  Uiso   1.00
C107   C     0.16340   0.83490   0.19050   0.00000  Uiso   1.00
C108   C     0.21650   0.78310   0.17630   0.00000  Uiso   1.00
H109   H     0.22670   0.77420   0.13550   0.00000  Uiso   1.00
C110   C     0.24280   0.75830   0.28110   0.00000  Uiso   1.00
C111   C     0.18740   0.81100   0.29720   0.00000  Uiso   1.00
C112   C     0.14940   0.84930   0.24930   0.00000  Uiso   1.00
H113   H     0.11280   0.88640   0.25900   0.00000  Uiso   1.00
O114   O     0.00020   0.11170   0.05980   0.00000  Uiso   1.00
O115   O     0.13800   0.86080   0.09070   0.00000  Uiso   1.00
O116   O     0.07430   0.92520   0.16110   0.00000  Uiso   1.00
S117   S     0.16660   0.83300   0.37320   0.00000  Uiso   1.00
O118   O     0.23340   0.85530   0.39790   0.00000  Uiso   1.00
O119   O     0.10880   0.89280   0.36760   0.00000  Uiso   1.00
O120   O     0.14580   0.77200   0.39970   0.00000  Uiso   1.00
C121   C     0.37620   0.37760   0.35630   0.00000  Uiso   1.00
C122   C     0.33490   0.33660   0.30950   0.00000  Uiso   1.00
C123   C     0.28310   0.28350   0.32370   0.00000  Uiso   1.00
H124   H     0.27420   0.27330   0.36450   0.00000  Uiso   1.00
C125   C     0.25830   0.25720   0.21890   0.00000  Uiso   1.00
C126   C     0.31100   0.31260   0.20280   0.00000  Uiso   1.00
C127   C     0.34930   0.35060   0.25070   0.00000  Uiso   1.00
H128   H     0.38640   0.38720   0.24100   0.00000  Uiso   1.00
O129   O     0.61170   0.49980   0.44020   0.00000  Uiso   1.00
O130   O     0.36080   0.36200   0.40930   0.00000  Uiso   1.00
O131   O     0.42520   0.42570   0.33890   0.00000  Uiso   1.00
S132   S     0.33300   0.33340   0.12680   0.00000  Uiso   1.00
O133   O     0.35530   0.26660   0.10210   0.00000  Uiso   1.00
O134   O     0.39280   0.39120   0.13240   0.00000  Uiso   1.00
O135   O     0.27200   0.35420   0.10030   0.00000  Uiso   1.00
C136   C     0.87620   0.87760   0.85630   0.00000  Uiso   1.00
C137   C     0.83490   0.83660   0.80950   0.00000  Uiso   1.00
C138   C     0.78310   0.78350   0.82370   0.00000  Uiso   1.00
H139   H     0.77420   0.77330   0.86450   0.00000  Uiso   1.00
C140   C     0.75830   0.75720   0.71890   0.00000  Uiso   1.00
C141   C     0.81100   0.81260   0.70280   0.00000  Uiso   1.00
C142   C     0.84930   0.85060   0.75070   0.00000  Uiso   1.00
H143   H     0.88640   0.88720   0.74100   0.00000  Uiso   1.00
O144   O     0.11170   0.99980   0.94020   0.00000  Uiso   1.00
O145   O     0.86080   0.86200   0.90930   0.00000  Uiso   1.00
O146   O     0.92520   0.92570   0.83890   0.00000  Uiso   1.00
S147   S     0.83300   0.83340   0.62680   0.00000  Uiso   1.00
O148   O     0.85530   0.76660   0.60210   0.00000  Uiso   1.00
O149   O     0.89280   0.89120   0.63240   0.00000  Uiso   1.00
O150   O     0.77200   0.85420   0.60030   0.00000  Uiso   1.00
C151   C     0.62380   0.62240   0.35630   0.00000  Uiso   1.00
C152   C     0.66510   0.66340   0.30950   0.00000  Uiso   1.00
C153   C     0.71690   0.71650   0.32370   0.00000  Uiso   1.00
H154   H     0.72580   0.72670   0.36450   0.00000  Uiso   1.00
C155   C     0.74170   0.74280   0.21890   0.00000  Uiso   1.00
C156   C     0.68900   0.68740   0.20280   0.00000  Uiso   1.00
C157   C     0.65070   0.64940   0.25070   0.00000  Uiso   1.00
H158   H     0.61360   0.61280   0.24100   0.00000  Uiso   1.00
O159   O     0.38830   0.50020   0.44020   0.00000  Uiso   1.00
O160   O     0.63920   0.63800   0.40930   0.00000  Uiso   1.00
O161   O     0.57480   0.57430   0.33890   0.00000  Uiso   1.00
S162   S     0.66700   0.66660   0.12680   0.00000  Uiso   1.00
O163   O     0.64470   0.73340   0.10210   0.00000  Uiso   1.00
O164   O     0.60720   0.60880   0.13240   0.00000  Uiso   1.00
O165   O     0.72800   0.64580   0.10030   0.00000  Uiso   1.00
C166   C     0.12380   0.12240   0.85630   0.00000  Uiso   1.00
C167   C     0.16510   0.16340   0.80950   0.00000  Uiso   1.00
C168   C     0.21690   0.21650   0.82370   0.00000  Uiso   1.00
H169   H     0.22580   0.22670   0.86450   0.00000  Uiso   1.00
C170   C     0.24170   0.24280   0.71890   0.00000  Uiso   1.00
C171   C     0.18900   0.18740   0.70280   0.00000  Uiso   1.00
C172   C     0.15070   0.14940   0.75070   0.00000  Uiso   1.00
H173   H     0.11360   0.11280   0.74100   0.00000  Uiso   1.00
O174   O     0.88830   0.00020   0.94020   0.00000  Uiso   1.00
O175   O     0.13920   0.13800   0.90930   0.00000  Uiso   1.00
O176   O     0.07480   0.07430   0.83890   0.00000  Uiso   1.00
S177   S     0.16700   0.16660   0.62680   0.00000  Uiso   1.00
O178   O     0.14470   0.23340   0.60210   0.00000  Uiso   1.00
O179   O     0.10720   0.10880   0.63240   0.00000  Uiso   1.00
O180   O     0.22800   0.14580   0.60030   0.00000  Uiso   1.00
C181   C     0.62240   0.37620   0.35630   0.00000  Uiso   1.00
C182   C     0.66340   0.33490   0.30950   0.00000  Uiso   1.00
C183   C     0.71650   0.28310   0.32370   0.00000  Uiso   1.00
H184   H     0.72670   0.27420   0.36450   0.00000  Uiso   1.00
C185   C     0.74280   0.25830   0.21890   0.00000  Uiso   1.00
C186   C     0.68740   0.31100   0.20280   0.00000  Uiso   1.00
C187   C     0.64940   0.34930   0.25070   0.00000  Uiso   1.00
H188   H     0.61280   0.38640   0.24100   0.00000  Uiso   1.00
O189   O     0.50020   0.61170   0.44020   0.00000  Uiso   1.00
O190   O     0.63800   0.36080   0.40930   0.00000  Uiso   1.00
O191   O     0.57430   0.42520   0.33890   0.00000  Uiso   1.00
S192   S     0.66660   0.33300   0.12680   0.00000  Uiso   1.00
O193   O     0.73340   0.35530   0.10210   0.00000  Uiso   1.00
O194   O     0.60880   0.39280   0.13240   0.00000  Uiso   1.00
O195   O     0.64580   0.27200   0.10030   0.00000  Uiso   1.00
C196   C     0.12240   0.87620   0.85630   0.00000  Uiso   1.00
C197   C     0.16340   0.83490   0.80950   0.00000  Uiso   1.00
C198   C     0.21650   0.78310   0.82370   0.00000  Uiso   1.00
H199   H     0.22670   0.77420   0.86450   0.00000  Uiso   1.00
C200   C     0.24280   0.75830   0.71890   0.00000  Uiso   1.00
C201   C     0.18740   0.81100   0.70280   0.00000  Uiso   1.00
C202   C     0.14940   0.84930   0.75070   0.00000  Uiso   1.00
H203   H     0.11280   0.88640   0.74100   0.00000  Uiso   1.00
O204   O     0.00020   0.11170   0.94020   0.00000  Uiso   1.00
O205   O     0.13800   0.86080   0.90930   0.00000  Uiso   1.00
O206   O     0.07430   0.92520   0.83890   0.00000  Uiso   1.00
S207   S     0.16660   0.83300   0.62680   0.00000  Uiso   1.00
O208   O     0.23340   0.85530   0.60210   0.00000  Uiso   1.00
O209   O     0.10880   0.89280   0.63240   0.00000  Uiso   1.00
O210   O     0.14580   0.77200   0.60030   0.00000  Uiso   1.00
C211   C     0.37760   0.62380   0.35630   0.00000  Uiso   1.00
C212   C     0.33660   0.66510   0.30950   0.00000  Uiso   1.00
C213   C     0.28350   0.71690   0.32370   0.00000  Uiso   1.00
H214   H     0.27330   0.72580   0.36450   0.00000  Uiso   1.00
C215   C     0.25720   0.74170   0.21890   0.00000  Uiso   1.00
C216   C     0.31260   0.68900   0.20280   0.00000  Uiso   1.00
C217   C     0.35060   0.65070   0.25070   0.00000  Uiso   1.00
H218   H     0.38720   0.61360   0.24100   0.00000  Uiso   1.00
O219   O     0.49980   0.38830   0.44020   0.00000  Uiso   1.00
O220   O     0.36200   0.63920   0.40930   0.00000  Uiso   1.00
O221   O     0.42570   0.57480   0.33890   0.00000  Uiso   1.00
S222   S     0.33340   0.66700   0.12680   0.00000  Uiso   1.00
O223   O     0.26660   0.64470   0.10210   0.00000  Uiso   1.00
O224   O     0.39120   0.60720   0.13240   0.00000  Uiso   1.00
O225   O     0.35420   0.72800   0.10030   0.00000  Uiso   1.00
C226   C     0.87760   0.12380   0.85630   0.00000  Uiso   1.00
C227   C     0.83660   0.16510   0.80950   0.00000  Uiso   1.00
C228   C     0.78350   0.21690   0.82370   0.00000  Uiso   1.00
H229   H     0.77330   0.22580   0.86450   0.00000  Uiso   1.00
C230   C     0.75720   0.24170   0.71890   0.00000  Uiso   1.00
C231   C     0.81260   0.18900   0.70280   0.00000  Uiso   1.00
C232   C     0.85060   0.15070   0.75070   0.00000  Uiso   1.00
H233   H     0.88720   0.11360   0.74100   0.00000  Uiso   1.00
O234   O     0.99980   0.88830   0.94020   0.00000  Uiso   1.00
O235   O     0.86200   0.13920   0.90930   0.00000  Uiso   1.00
O236   O     0.92570   0.07480   0.83890   0.00000  Uiso   1.00
S237   S     0.83340   0.16700   0.62680   0.00000  Uiso   1.00
O238   O     0.76660   0.14470   0.60210   0.00000  Uiso   1.00
O239   O     0.89120   0.10720   0.63240   0.00000  Uiso   1.00
O240   O     0.85420   0.22800   0.60030   0.00000  Uiso   1.00
Zr241  Zr    0.40018   0.40034   0.50000   0.00000  Uiso   1.00
O242   O     0.27620   0.40650   0.50000   0.00000  Uiso   1.00
O243   O     0.40630   0.27780   0.50000   0.00000  Uiso   1.00
Zr244  Zr    0.90018   0.90034   0.00000   0.00000  Uiso   1.00
O245   O     0.77620   0.90650   0.00000   0.00000  Uiso   1.00
O246   O     0.90630   0.77780   0.00000   0.00000  Uiso   1.00
Zr247  Zr    0.59982   0.59966   0.50000   0.00000  Uiso   1.00
O248   O     0.72380   0.59350   0.50000   0.00000  Uiso   1.00
O249   O     0.59370   0.72220   0.50000   0.00000  Uiso   1.00
Zr250  Zr    0.09982   0.09966   0.00000   0.00000  Uiso   1.00
O251   O     0.22380   0.09350   0.00000   0.00000  Uiso   1.00
O252   O     0.09370   0.22220   0.00000   0.00000  Uiso   1.00
Zr253  Zr    0.59966   0.40018   0.50000   0.00000  Uiso   1.00
O254   O     0.59350   0.27620   0.50000   0.00000  Uiso   1.00
O255   O     0.72220   0.40630   0.50000   0.00000  Uiso   1.00
Zr256  Zr    0.09966   0.90018   0.00000   0.00000  Uiso   1.00
O257   O     0.09350   0.77620   0.00000   0.00000  Uiso   1.00
O258   O     0.22220   0.90630   0.00000   0.00000  Uiso   1.00
Zr259  Zr    0.40034   0.59982   0.50000   0.00000  Uiso   1.00
O260   O     0.40650   0.72380   0.50000   0.00000  Uiso   1.00
O261   O     0.27780   0.59370   0.50000   0.00000  Uiso   1.00
Zr262  Zr    0.90034   0.09982   0.00000   0.00000  Uiso   1.00
O263   O     0.90650   0.22380   0.00000   0.00000  Uiso   1.00
O264   O     0.77780   0.09370   0.00000   0.00000  Uiso   1.00
Zr265  Zr    0.50000   0.50000   0.60899   0.00000  Uiso   1.00
Zr266  Zr    0.00000   0.00000   0.10899   0.00000  Uiso   1.00
Zr267  Zr    0.50000   0.50000   0.39101   0.00000  Uiso   1.00
Zr268  Zr    0.00000   0.00000   0.89101   0.00000  Uiso   1.00
loop_
_geom_bond_atom_site_label_1
_geom_bond_atom_site_label_2
_geom_bond_distance
_geom_bond_site_symmetry_2
_ccdc_geom_bond_type
C1     C2      1.475   .     S
C1     O10     1.254   .     S
C1     O11     1.280   .     S
C2     C3      1.355   .     S
C2     C7      1.369   .     S
C3     H4      0.948   .     S
C3     C140    1.407   .     S
C5     C6      1.405   .     S
C5     C138    1.407   .     S
C5     C140    1.452   .     S
C6     C7      1.441   .     S
C6     S12     1.791   .     S
C7     H8      0.950   .     S
O9     Zr241   2.235   .     S
O9     Zr265   2.270   .     S
O9     Zr259   2.232   .     S
O10    Zr247   2.261   .     S
O11    Zr265   2.208   .     S
S12    O13     1.368   .     S
S12    O14     1.482   .     S
S12    O15     1.290   .     S
C16    C17     1.475   .     S
C16    O25     1.254   .     S
C16    O26     1.280   .     S
C17    C18     1.355   .     S
C17    C22     1.369   .     S
C18    H19     0.948   .     S
C18    C125    1.407   .     S
C20    C21     1.405   .     S
C20    C123    1.407   .     S
C20    C125    1.452   .     S
C21    C22     1.441   .     S
C21    S27     1.791   .     S
C22    H23     0.950   .     S
O24    Zr244   2.235   1_545 S
O24    Zr266   2.270   1_655 S
O24    Zr262   2.232   .     S
O25    Zr250   2.261   .     S
O26    Zr266   2.208   .     S
S27    O28     1.368   .     S
S27    O29     1.482   .     S
S27    O30     1.290   .     S
C31    C32     1.475   .     S
C31    O40     1.254   .     S
C31    O41     1.280   .     S
C32    C33     1.355   .     S
C32    C37     1.369   .     S
C33    H34     0.948   .     S
C33    C170    1.407   .     S
C35    C36     1.405   .     S
C35    C168    1.407   .     S
C35    C170    1.452   .     S
C36    C37     1.441   .     S
C36    S42     1.791   .     S
C37    H38     0.950   .     S
O39    Zr247   2.235   .     S
O39    Zr265   2.270   .     S
O39    Zr253   2.232   .     S
O40    Zr241   2.261   .     S
O41    Zr265   2.208   .     S
S42    O43     1.368   .     S
S42    O44     1.482   .     S
S42    O45     1.290   .     S
C46    C47     1.475   .     S
C46    O55     1.254   .     S
C46    O56     1.280   .     S
C47    C48     1.355   .     S
C47    C52     1.369   .     S
C48    H49     0.948   .     S
C48    C155    1.407   .     S
C50    C51     1.405   .     S
C50    C153    1.407   .     S
C50    C155    1.452   .     S
C51    C52     1.441   .     S
C51    S57     1.791   .     S
C52    H53     0.950   .     S
O54    Zr250   2.235   1_565 S
O54    Zr266   2.270   1_565 S
O54    Zr256   2.232   .     S
O55    Zr244   2.261   .     S
O56    Zr266   2.208   1_665 S
S57    O58     1.368   .     S
S57    O59     1.482   .     S
S57    O60     1.290   .     S
C61    C62     1.475   .     S
C61    O70     1.254   .     S
C61    O71     1.280   .     S
C62    C63     1.355   .     S
C62    C67     1.369   .     S
C63    H64     0.948   .     S
C63    C200    1.407   .     S
C65    C66     1.405   .     S
C65    C198    1.407   .     S
C65    C200    1.452   .     S
C66    C67     1.441   .     S
C66    S72     1.791   .     S
C67    H68     0.950   .     S
O69    Zr253   2.235   .     S
O69    Zr265   2.270   .     S
O69    Zr241   2.232   .     S
O70    Zr259   2.261   .     S
O71    Zr265   2.208   .     S
S72    O73     1.368   .     S
S72    O74     1.482   .     S
S72    O75     1.290   .     S
C76    C77     1.475   .     S
C76    O85     1.254   .     S
C76    O86     1.280   .     S
C77    C78     1.355   .     S
C77    C82     1.369   .     S
C78    H79     0.948   .     S
C78    C185    1.407   .     S
C80    C81     1.405   .     S
C80    C183    1.407   .     S
C80    C185    1.452   .     S
C81    C82     1.441   .     S
C81    S87     1.791   .     S
C82    H83     0.950   .     S
O84    Zr256   2.235   1_655 S
O84    Zr266   2.270   1_665 S
O84    Zr244   2.232   .     S
O85    Zr262   2.261   .     S
O86    Zr266   2.208   1_655 S
S87    O88     1.368   .     S
S87    O89     1.482   .     S
S87    O90     1.290   .     S
C91    C92     1.475   .     S
C91    O100    1.254   .     S
C91    O101    1.280   .     S
C92    C93     1.355   .     S
C92    C97     1.369   .     S
C93    H94     0.948   .     S
C93    C230    1.407   .     S
C95    C96     1.405   .     S
C95    C228    1.407   .     S
C95    C230    1.452   .     S
C96    C97     1.441   .     S
C96    S102    1.791   .     S
C97    H98     0.950   .     S
O99    Zr259   2.235   .     S
O99    Zr265   2.270   .     S
O99    Zr247   2.232   .     S
O100   Zr253   2.261   .     S
O101   Zr265   2.208   .     S
S102   O103    1.368   .     S
S102   O104    1.482   .     S
S102   O105    1.290   .     S
C106   C107    1.475   .     S
C106   O115    1.254   .     S
C106   O116    1.280   .     S
C107   C108    1.355   .     S
C107   C112    1.369   .     S
C108   H109    0.948   .     S
C108   C215    1.407   .     S
C110   C111    1.405   .     S
C110   C213    1.407   .     S
C110   C215    1.452   .     S
C111   C112    1.441   .     S
C111   S117    1.791   .     S
C112   H113    0.950   .     S
O114   Zr262   2.235   1_455 S
O114   Zr266   2.270   .     S
O114   Zr250   2.232   .     S
O115   Zr256   2.261   .     S
O116   Zr266   2.208   1_565 S
S117   O118    1.368   .     S
S117   O119    1.482   .     S
S117   O120    1.290   .     S
C121   C122    1.475   .     S
C121   O130    1.254   .     S
C121   O131    1.280   .     S
C122   C123    1.355   .     S
C122   C127    1.369   .     S
C123   H124    0.948   .     S
C125   C126    1.405   .     S
C126   C127    1.441   .     S
C126   S132    1.791   .     S
C127   H128    0.950   .     S
O129   Zr247   2.235   .     S
O129   Zr267   2.270   .     S
O129   Zr253   2.232   .     S
O130   Zr241   2.261   .     S
O131   Zr267   2.208   .     S
S132   O133    1.368   .     S
S132   O134    1.482   .     S
S132   O135    1.290   .     S
C136   C137    1.475   .     S
C136   O145    1.254   .     S
C136   O146    1.280   .     S
C137   C138    1.355   .     S
C137   C142    1.369   .     S
C138   H139    0.948   .     S
C140   C141    1.405   .     S
C141   C142    1.441   .     S
C141   S147    1.791   .     S
C142   H143    0.950   .     S
O144   Zr250   2.235   1_566 S
O144   Zr268   2.270   1_565 S
O144   Zr256   2.232   1_556 S
O145   Zr244   2.261   1_556 S
O146   Zr268   2.208   1_665 S
S147   O148    1.368   .     S
S147   O149    1.482   .     S
S147   O150    1.290   .     S
C151   C152    1.475   .     S
C151   O160    1.254   .     S
C151   O161    1.280   .     S
C152   C153    1.355   .     S
C152   C157    1.369   .     S
C153   H154    0.948   .     S
C155   C156    1.405   .     S
C156   C157    1.441   .     S
C156   S162    1.791   .     S
C157   H158    0.950   .     S
O159   Zr241   2.235   .     S
O159   Zr267   2.270   .     S
O159   Zr259   2.232   .     S
O160   Zr247   2.261   .     S
O161   Zr267   2.208   .     S
S162   O163    1.368   .     S
S162   O164    1.482   .     S
S162   O165    1.290   .     S
C166   C167    1.475   .     S
C166   O175    1.254   .     S
C166   O176    1.280   .     S
C167   C168    1.355   .     S
C167   C172    1.369   .     S
C168   H169    0.948   .     S
C170   C171    1.405   .     S
C171   C172    1.441   .     S
C171   S177    1.791   .     S
C172   H173    0.950   .     S
O174   Zr244   2.235   1_546 S
O174   Zr268   2.270   1_655 S
O174   Zr262   2.232   1_556 S
O175   Zr250   2.261   1_556 S
O176   Zr268   2.208   .     S
S177   O178    1.368   .     S
S177   O179    1.482   .     S
S177   O180    1.290   .     S
C181   C182    1.475   .     S
C181   O190    1.254   .     S
C181   O191    1.280   .     S
C182   C183    1.355   .     S
C182   C187    1.369   .     S
C183   H184    0.948   .     S
C185   C186    1.405   .     S
C186   C187    1.441   .     S
C186   S192    1.791   .     S
C187   H188    0.950   .     S
O189   Zr259   2.235   .     S
O189   Zr267   2.270   .     S
O189   Zr247   2.232   .     S
O190   Zr253   2.261   .     S
O191   Zr267   2.208   .     S
S192   O193    1.368   .     S
S192   O194    1.482   .     S
S192   O195    1.290   .     S
C196   C197    1.475   .     S
C196   O205    1.254   .     S
C196   O206    1.280   .     S
C197   C198    1.355   .     S
C197   C202    1.369   .     S
C198   H199    0.948   .     S
C200   C201    1.405   .     S
C201   C202    1.441   .     S
C201   S207    1.791   .     S
C202   H203    0.950   .     S
O204   Zr262   2.235   1_456 S
O204   Zr268   2.270   .     S
O204   Zr250   2.232   1_556 S
O205   Zr256   2.261   1_556 S
O206   Zr268   2.208   1_565 S
S207   O208    1.368   .     S
S207   O209    1.482   .     S
S207   O210    1.290   .     S
C211   C212    1.475   .     S
C211   O220    1.254   .     S
C211   O221    1.280   .     S
C212   C213    1.355   .     S
C212   C217    1.369   .     S
C213   H214    0.948   .     S
C215   C216    1.405   .     S
C216   C217    1.441   .     S
C216   S222    1.791   .     S
C217   H218    0.950   .     S
O219   Zr253   2.235   .     S
O219   Zr267   2.270   .     S
O219   Zr241   2.232   .     S
O220   Zr259   2.261   .     S
O221   Zr267   2.208   .     S
S222   O223    1.368   .     S
S222   O224    1.482   .     S
S222   O225    1.290   .     S
C226   C227    1.475   .     S
C226   O235    1.254   .     S
C226   O236    1.280   .     S
C227   C228    1.355   .     S
C227   C232    1.369   .     S
C228   H229    0.948   .     S
C230   C231    1.405   .     S
C231   C232    1.441   .     S
C231   S237    1.791   .     S
C232   H233    0.950   .     S
O234   Zr256   2.235   1_656 S
O234   Zr268   2.270   1_665 S
O234   Zr244   2.232   1_556 S
O235   Zr262   2.261   1_556 S
O236   Zr268   2.208   1_655 S
S237   O238    1.368   .     S
S237   O239    1.482   .     S
S237   O240    1.290   .     S
Zr241  O242    2.203   .     S
Zr241  O243    2.178   .     S
Zr244  O24     2.235   1_565 S
Zr244  O174    2.235   1_564 S
Zr244  O245    2.203   .     S
Zr244  O246    2.178   .     S
Zr244  O234    2.232   1_554 S
Zr244  O145    2.261   1_554 S
Zr247  O248    2.203   .     S
Zr247  O249    2.178   .     S
Zr250  O54     2.235   1_545 S
Zr250  O144    2.235   1_544 S
Zr250  O251    2.203   .     S
Zr250  O252    2.178   .     S
Zr250  O204    2.232   1_554 S
Zr250  O175    2.261   1_554 S
Zr253  O254    2.203   .     S
Zr253  O255    2.178   .     S
Zr256  O84     2.235   1_455 S
Zr256  O234    2.235   1_454 S
Zr256  O257    2.203   .     S
Zr256  O258    2.178   .     S
Zr256  O144    2.232   1_554 S
Zr256  O205    2.261   1_554 S
Zr259  O260    2.203   .     S
Zr259  O261    2.178   .     S
Zr262  O114    2.235   1_655 S
Zr262  O204    2.235   1_654 S
Zr262  O263    2.203   .     S
Zr262  O264    2.178   .     S
Zr262  O174    2.232   1_554 S
Zr262  O235    2.261   1_554 S
Zr266  O24     2.270   1_455 S
Zr266  O54     2.270   1_545 S
Zr266  O84     2.270   1_445 S
Zr266  O86     2.208   1_455 S
Zr266  O116    2.208   1_545 S
Zr266  O56     2.208   1_445 S
Zr268  O144    2.270   1_545 S
Zr268  O174    2.270   1_455 S
Zr268  O234    2.270   1_445 S
Zr268  O206    2.208   1_545 S
Zr268  O236    2.208   1_455 S
Zr268  O146    2.208   1_445 S
