data_KEKHUG_directopt
_audit_creation_date              2024-06-11
_audit_creation_method            'Materials Studio'
_symmetry_space_group_name_H-M    'P1'
_symmetry_Int_Tables_number       1
_symmetry_cell_setting            triclinic
loop_
_symmetry_equiv_pos_as_xyz
  x,y,z
_cell_length_a                    5.6064
_cell_length_b                    12.4389
_cell_length_c                    5.3710
_cell_angle_alpha                 90.0000
_cell_angle_beta                  105.7562
_cell_angle_gamma                 90.0000
loop_
_atom_site_label
_atom_site_type_symbol
_atom_site_fract_x
_atom_site_fract_y
_atom_site_fract_z
_atom_site_U_iso_or_equiv
_atom_site_adp_type
_atom_site_occupancy
Mn1    Mn    0.46544   0.05984   0.03756   0.01430  Uiso   1.00
P2     P     0.06036   0.01516   0.45438   0.01730  Uiso   1.00
O3     O     0.29407   0.05013   0.32738   0.01060  Uiso   1.00
O4     O     0.14276   0.05958   0.75920   0.01060  Uiso   1.00
O5     O     0.79077   0.07525   0.31491   0.01060  Uiso   1.00
O6     O     0.01063   0.88712   0.49094   0.01060  Uiso   1.00
O7     O     0.54016   0.72183   0.96753   0.01060  Uiso   1.00
O8     O     0.48166   0.89772   0.01922   0.01060  Uiso   1.00
C9     C     0.80616   0.84954   0.57001   0.01060  Uiso   1.00
C10    C     0.84931   0.84530   0.86743   0.01060  Uiso   1.00
C11    C     0.61204   0.82097   0.94937   0.01060  Uiso   1.00
N12    N     0.04308   0.76674   0.97644   0.01060  Uiso   1.00
O13    O     0.63624   0.07018   0.77493   0.01060  Uiso   1.00
H14    H     0.97573   0.69010   0.92174   0.00000  Uiso   1.00
H15    H     0.08803   0.76855   0.17766   0.00000  Uiso   1.00
H16    H     0.64108   0.89990   0.48702   0.00000  Uiso   1.00
H17    H     0.76063   0.76726   0.49164   0.00000  Uiso   1.00
H18    H     0.91844   0.92449   0.94704   0.00000  Uiso   1.00
Mn19   Mn    0.53456   0.55984   0.96244   0.01430  Uiso   1.00
P20    P     0.93964   0.51516   0.54562   0.01730  Uiso   1.00
O21    O     0.70593   0.55013   0.67262   0.01060  Uiso   1.00
O22    O     0.85724   0.55958   0.24080   0.01060  Uiso   1.00
O23    O     0.20923   0.57525   0.68509   0.01060  Uiso   1.00
O24    O     0.98937   0.38712   0.50906   0.01060  Uiso   1.00
O25    O     0.45984   0.22183   0.03247   0.01060  Uiso   1.00
O26    O     0.51834   0.39772   0.98078   0.01060  Uiso   1.00
C27    C     0.19384   0.34954   0.42999   0.01060  Uiso   1.00
C28    C     0.15069   0.34530   0.13257   0.01060  Uiso   1.00
C29    C     0.38796   0.32097   0.05063   0.01060  Uiso   1.00
N30    N     0.95692   0.26674   0.02356   0.01060  Uiso   1.00
O31    O     0.36376   0.57018   0.22507   0.01060  Uiso   1.00
H32    H     0.02427   0.19010   0.07826   0.00000  Uiso   1.00
H33    H     0.91197   0.26855   0.82234   0.00000  Uiso   1.00
H34    H     0.35892   0.39990   0.51298   0.00000  Uiso   1.00
H35    H     0.23937   0.26726   0.50836   0.00000  Uiso   1.00
H36    H     0.08156   0.42449   0.05296   0.00000  Uiso   1.00
loop_
_geom_bond_atom_site_label_1
_geom_bond_atom_site_label_2
_geom_bond_distance
_geom_bond_site_symmetry_2
_ccdc_geom_bond_type
Mn1    O4      2.010   1_554 S
Mn1    O13     1.912   1_554 S
Mn1    O3      2.043   .     S
Mn1    O5      2.027   .     S
Mn1    O25     2.015   .     S
Mn1    O8      2.022   1_545 S
P2     O3      1.690   .     A
P2     O4      1.670   .     A
P2     O5      1.670   1_455 A
P2     O6      1.638   1_545 A
O4     Mn1     2.010   1_556 S
O5     P2      1.670   1_655 A
O6     P2      1.638   1_565 A
O6     C9      1.406   1_455 S
O7     C11     1.309   .     A
O7     Mn19    2.015   .     S
O8     C11     1.317   1_554 A
O8     Mn1     2.022   1_565 S
C9     C10     1.550   .     S
C9     O6      1.406   1_655 S
C9     H16     1.106   .     S
C9     H17     1.110   .     S
C10    C11     1.540   .     S
C10    N12     1.460   1_655 S
C10    H18     1.101   .     S
C11    O8      1.317   1_556 A
N12    C10     1.460   1_455 S
N12    H14     1.038   1_455 S
N12    H15     1.041   1_556 S
O13    Mn1     1.912   1_556 S
H14    N12     1.038   1_655 S
H15    N12     1.041   1_554 S
Mn19   O22     2.010   1_556 S
Mn19   O31     1.912   1_556 S
Mn19   O21     2.043   .     S
Mn19   O23     2.027   .     S
Mn19   O26     2.022   .     S
P20    O21     1.690   .     A
P20    O22     1.670   .     A
P20    O23     1.670   1_655 A
P20    O24     1.638   .     A
O22    Mn19    2.010   1_554 S
O23    P20     1.670   1_455 A
O24    C27     1.406   1_655 S
O25    C29     1.309   .     A
O26    C29     1.317   1_556 A
C27    C28     1.550   .     S
C27    O24     1.406   1_455 S
C27    H34     1.106   .     S
C27    H35     1.110   .     S
C28    C29     1.540   .     S
C28    N30     1.460   1_455 S
C28    H36     1.101   .     S
C29    O26     1.317   1_554 A
N30    C28     1.460   1_655 S
N30    H32     1.038   1_655 S
N30    H33     1.041   1_554 S
O31    Mn19    1.912   1_554 S
H32    N30     1.038   1_455 S
H33    N30     1.041   1_556 S
