data_KEKLIY_FSR
_audit_creation_date              2024-06-11
_audit_creation_method            'Materials Studio'
_symmetry_space_group_name_H-M    'P1'
_symmetry_Int_Tables_number       1
_symmetry_cell_setting            triclinic
loop_
_symmetry_equiv_pos_as_xyz
  x,y,z
_cell_length_a                    5.1818
_cell_length_b                    7.6909
_cell_length_c                    17.7166
_cell_angle_alpha                 90.0000
_cell_angle_beta                  90.0000
_cell_angle_gamma                 90.0000
loop_
_atom_site_label
_atom_site_type_symbol
_atom_site_fract_x
_atom_site_fract_y
_atom_site_fract_z
_atom_site_U_iso_or_equiv
_atom_site_adp_type
_atom_site_occupancy
Zn1    Zn    0.68413   0.01979   0.32768   0.00000  Uiso   1.00
P2     P     0.18570   0.82590   0.27506   0.00000  Uiso   1.00
O3     O     0.28970   0.50820   0.56640   0.00000  Uiso   1.00
O4     O     0.94370   0.38570   0.51480   0.00000  Uiso   1.00
O5     O     0.26060   0.66000   0.32560   0.00000  Uiso   1.00
O6     O     0.89830   0.85120   0.27750   0.00000  Uiso   1.00
O7     O     0.27580   0.76990   0.19700   0.00000  Uiso   1.00
O8     O     0.32700   0.98150   0.30680   0.00000  Uiso   1.00
N9     N     0.20450   0.33080   0.38530   0.00000  Uiso   1.00
H10    H     0.27710   0.34260   0.34010   0.00000  Uiso   1.00
H11    H     0.03370   0.32710   0.38030   0.00000  Uiso   1.00
H12    H     0.25930   0.23270   0.40660   0.00000  Uiso   1.00
C13    C     0.15850   0.45120   0.51210   0.00000  Uiso   1.00
C14    C     0.27650   0.48020   0.43350   0.00000  Uiso   1.00
H15    H     0.46480   0.48830   0.43740   0.00000  Uiso   1.00
C16    C     0.16820   0.64730   0.40070   0.00000  Uiso   1.00
H17    H     0.98100   0.64440   0.40120   0.00000  Uiso   1.00
H18    H     0.22530   0.74650   0.43010   0.00000  Uiso   1.00
Zn19   Zn    0.81587   0.98021   0.82768   0.00000  Uiso   1.00
P20    P     0.31430   0.17410   0.77506   0.00000  Uiso   1.00
O21    O     0.21030   0.49180   0.06640   0.00000  Uiso   1.00
O22    O     0.55630   0.61430   0.01480   0.00000  Uiso   1.00
O23    O     0.23940   0.34000   0.82560   0.00000  Uiso   1.00
O24    O     0.60170   0.14880   0.77750   0.00000  Uiso   1.00
O25    O     0.22420   0.23010   0.69700   0.00000  Uiso   1.00
O26    O     0.17300   0.01850   0.80680   0.00000  Uiso   1.00
N27    N     0.29550   0.66920   0.88530   0.00000  Uiso   1.00
H28    H     0.22290   0.65740   0.84010   0.00000  Uiso   1.00
H29    H     0.46630   0.67290   0.88030   0.00000  Uiso   1.00
H30    H     0.24070   0.76730   0.90660   0.00000  Uiso   1.00
C31    C     0.34150   0.54880   0.01210   0.00000  Uiso   1.00
C32    C     0.22350   0.51980   0.93350   0.00000  Uiso   1.00
H33    H     0.03520   0.51170   0.93740   0.00000  Uiso   1.00
C34    C     0.33180   0.35270   0.90070   0.00000  Uiso   1.00
H35    H     0.51900   0.35560   0.90120   0.00000  Uiso   1.00
H36    H     0.27470   0.25350   0.93010   0.00000  Uiso   1.00
Zn37   Zn    0.31587   0.51979   0.17232   0.00000  Uiso   1.00
P38    P     0.81430   0.32590   0.22494   0.00000  Uiso   1.00
O39    O     0.71030   0.00820   0.93360   0.00000  Uiso   1.00
O40    O     0.05630   0.88570   0.98520   0.00000  Uiso   1.00
O41    O     0.73940   0.16000   0.17440   0.00000  Uiso   1.00
O42    O     0.10170   0.35120   0.22250   0.00000  Uiso   1.00
O43    O     0.72420   0.26990   0.30300   0.00000  Uiso   1.00
O44    O     0.67300   0.48150   0.19320   0.00000  Uiso   1.00
N45    N     0.79550   0.83080   0.11470   0.00000  Uiso   1.00
H46    H     0.72290   0.84260   0.15990   0.00000  Uiso   1.00
H47    H     0.96630   0.82710   0.11970   0.00000  Uiso   1.00
H48    H     0.74070   0.73270   0.09340   0.00000  Uiso   1.00
C49    C     0.84150   0.95120   0.98790   0.00000  Uiso   1.00
C50    C     0.72350   0.98020   0.06650   0.00000  Uiso   1.00
H51    H     0.53520   0.98830   0.06260   0.00000  Uiso   1.00
C52    C     0.83180   0.14730   0.09930   0.00000  Uiso   1.00
H53    H     0.01900   0.14440   0.09880   0.00000  Uiso   1.00
H54    H     0.77470   0.24650   0.06990   0.00000  Uiso   1.00
Zn55   Zn    0.18413   0.48021   0.67232   0.00000  Uiso   1.00
P56    P     0.68570   0.67410   0.72494   0.00000  Uiso   1.00
O57    O     0.78970   0.99180   0.43360   0.00000  Uiso   1.00
O58    O     0.44370   0.11430   0.48520   0.00000  Uiso   1.00
O59    O     0.76060   0.84000   0.67440   0.00000  Uiso   1.00
O60    O     0.39830   0.64880   0.72250   0.00000  Uiso   1.00
O61    O     0.77580   0.73010   0.80300   0.00000  Uiso   1.00
O62    O     0.82700   0.51850   0.69320   0.00000  Uiso   1.00
N63    N     0.70450   0.16920   0.61470   0.00000  Uiso   1.00
H64    H     0.77710   0.15740   0.65990   0.00000  Uiso   1.00
H65    H     0.53370   0.17290   0.61970   0.00000  Uiso   1.00
H66    H     0.75930   0.26730   0.59340   0.00000  Uiso   1.00
C67    C     0.65850   0.04880   0.48790   0.00000  Uiso   1.00
C68    C     0.77650   0.01980   0.56650   0.00000  Uiso   1.00
H69    H     0.96480   0.01170   0.56260   0.00000  Uiso   1.00
C70    C     0.66820   0.85270   0.59930   0.00000  Uiso   1.00
H71    H     0.48100   0.85560   0.59880   0.00000  Uiso   1.00
H72    H     0.72530   0.75350   0.56990   0.00000  Uiso   1.00
loop_
_geom_bond_atom_site_label_1
_geom_bond_atom_site_label_2
_geom_bond_distance
_geom_bond_site_symmetry_2
_ccdc_geom_bond_type
Zn1    O6      1.924   1_545 S
Zn1    O57     1.966   1_545 S
Zn1    O43     1.984   .     S
Zn1    O8      1.910   1_545 S
P2     O5      1.606   .     S
P2     O6      1.503   1_455 S
P2     O7      1.522   .     S
P2     O8      1.511   .     S
O3     C13     1.257   .     S
O3     Zn55    1.966   .     S
O4     C13     1.223   1_655 S
O5     C16     1.417   .     S
O6     Zn1     1.924   1_565 S
O6     P2      1.503   1_655 S
O7     Zn37    1.984   .     S
O8     Zn1     1.910   1_565 S
N9     H10     0.889   .     S
N9     H11     0.890   .     S
N9     H12     0.890   .     S
N9     C14     1.479   .     S
C13    O4      1.223   1_455 S
C13    C14     1.537   .     S
C14    H15     0.980   .     S
C14    C16     1.518   .     S
C16    H17     0.970   1_455 S
C16    H18     0.970   .     S
H17    C16     0.970   1_655 S
Zn19   O24     1.924   1_565 S
Zn19   O39     1.966   1_565 S
Zn19   O61     1.984   .     S
Zn19   O26     1.910   1_665 S
P20    O23     1.606   .     S
P20    O24     1.503   .     S
P20    O25     1.522   .     S
P20    O26     1.511   .     S
O21    C31     1.257   .     S
O21    Zn37    1.966   .     S
O22    C31     1.223   .     S
O23    C34     1.417   .     S
O24    Zn19    1.924   1_545 S
O25    Zn55    1.984   .     S
O26    Zn19    1.910   1_445 S
N27    H28     0.889   .     S
N27    H29     0.890   .     S
N27    H30     0.890   .     S
N27    C32     1.479   .     S
C31    C32     1.537   1_554 S
C32    C31     1.537   1_556 S
C32    H33     0.980   .     S
C32    C34     1.518   .     S
C34    H35     0.970   .     S
C34    H36     0.970   .     S
Zn37   O42     1.924   .     S
Zn37   O44     1.910   .     S
P38    O41     1.606   .     S
P38    O42     1.503   1_655 S
P38    O43     1.522   .     S
P38    O44     1.511   .     S
O39    C49     1.257   1_545 S
O39    Zn19    1.966   1_545 S
O40    C49     1.223   1_455 S
O41    C52     1.417   .     S
O42    P38     1.503   1_455 S
N45    H46     0.889   .     S
N45    H47     0.890   .     S
N45    H48     0.890   .     S
N45    C50     1.479   .     S
C49    O39     1.257   1_565 S
C49    O40     1.223   1_655 S
C49    C50     1.537   1_556 S
C50    C49     1.537   1_554 S
C50    H51     0.980   .     S
C50    C52     1.518   1_565 S
C52    C50     1.518   1_545 S
C52    H53     0.970   1_655 S
C52    H54     0.970   .     S
H53    C52     0.970   1_455 S
Zn55   O60     1.924   .     S
Zn55   O62     1.910   1_455 S
P56    O59     1.606   .     S
P56    O60     1.503   .     S
P56    O61     1.522   .     S
P56    O62     1.511   .     S
O57    C67     1.257   1_565 S
O57    Zn1     1.966   1_565 S
O58    C67     1.223   .     S
O59    C70     1.417   .     S
O62    Zn55    1.910   1_655 S
N63    H64     0.889   .     S
N63    H65     0.890   .     S
N63    H66     0.890   .     S
N63    C68     1.479   .     S
C67    O57     1.257   1_545 S
C67    C68     1.537   .     S
C68    H69     0.980   .     S
C68    C70     1.518   1_545 S
C70    C68     1.518   1_565 S
C70    H71     0.970   .     S
C70    H72     0.970   .     S
