data_KEKLEU_FSR
_audit_creation_date              2024-06-11
_audit_creation_method            'Materials Studio'
_symmetry_space_group_name_H-M    'P1'
_symmetry_Int_Tables_number       1
_symmetry_cell_setting            triclinic
loop_
_symmetry_equiv_pos_as_xyz
  x,y,z
_cell_length_a                    5.4372
_cell_length_b                    9.9568
_cell_length_c                    7.6434
_cell_angle_alpha                 90.0000
_cell_angle_beta                  98.0300
_cell_angle_gamma                 90.0000
loop_
_atom_site_label
_atom_site_type_symbol
_atom_site_fract_x
_atom_site_fract_y
_atom_site_fract_z
_atom_site_U_iso_or_equiv
_atom_site_adp_type
_atom_site_occupancy
Co1    Co    0.84505   0.95915   0.47994   0.00000  Uiso   1.00
P2     P     0.35700   0.77203   0.58830   0.00000  Uiso   1.00
O3     O     0.13420   0.08260   0.44390   0.00000  Uiso   1.00
H4     H     0.25670   0.06740   0.52350   0.00000  Uiso   1.00
H5     H     0.08810   0.16390   0.45110   0.00000  Uiso   1.00
O6     O     0.54160   0.84380   0.49440   0.00000  Uiso   1.00
O7     O     0.87210   0.01090   0.75350   0.00000  Uiso   1.00
H8     H     0.72830   0.00820   0.78540   0.00000  Uiso   1.00
H9     H     0.93120   0.08980   0.76930   0.00000  Uiso   1.00
O10    O     0.08970   0.80810   0.51910   0.00000  Uiso   1.00
O11    O     0.41440   0.82530   0.78960   0.00000  Uiso   1.00
O12    O     0.38840   0.61990   0.59520   0.00000  Uiso   1.00
O13    O     0.80060   0.90010   0.17560   0.00000  Uiso   1.00
O14    O     0.76580   0.68250   0.10020   0.00000  Uiso   1.00
N15    N     0.31220   0.94540   0.12890   0.00000  Uiso   1.00
H16    H     0.32470   0.99530   0.03400   0.00000  Uiso   1.00
H17    H     0.40640   0.98040   0.22230   0.00000  Uiso   1.00
H18    H     0.15460   0.94350   0.14840   0.00000  Uiso   1.00
C19    C     0.28500   0.75740   0.91790   0.00000  Uiso   1.00
H20    H     0.30470   0.66090   0.90910   0.00000  Uiso   1.00
H21    H     0.10920   0.77850   0.89670   0.00000  Uiso   1.00
C22    C     0.39710   0.80600   0.09860   0.00000  Uiso   1.00
H23    H     0.33490   0.74780   0.18600   0.00000  Uiso   1.00
C24    C     0.68210   0.79630   0.12760   0.00000  Uiso   1.00
Co25   Co    0.15495   0.45915   0.52006   0.00000  Uiso   1.00
P26    P     0.64300   0.27203   0.41170   0.00000  Uiso   1.00
O27    O     0.86580   0.58260   0.55610   0.00000  Uiso   1.00
H28    H     0.74330   0.56740   0.47650   0.00000  Uiso   1.00
H29    H     0.91190   0.66390   0.54890   0.00000  Uiso   1.00
O30    O     0.45840   0.34380   0.50560   0.00000  Uiso   1.00
O31    O     0.12790   0.51090   0.24650   0.00000  Uiso   1.00
H32    H     0.27170   0.50820   0.21460   0.00000  Uiso   1.00
H33    H     0.06880   0.58980   0.23070   0.00000  Uiso   1.00
O34    O     0.91030   0.30810   0.48090   0.00000  Uiso   1.00
O35    O     0.58560   0.32530   0.21040   0.00000  Uiso   1.00
O36    O     0.61160   0.11990   0.40480   0.00000  Uiso   1.00
O37    O     0.19940   0.40010   0.82440   0.00000  Uiso   1.00
O38    O     0.23420   0.18250   0.89980   0.00000  Uiso   1.00
N39    N     0.68780   0.44540   0.87110   0.00000  Uiso   1.00
H40    H     0.67530   0.49530   0.96600   0.00000  Uiso   1.00
H41    H     0.59360   0.48040   0.77770   0.00000  Uiso   1.00
H42    H     0.84540   0.44350   0.85160   0.00000  Uiso   1.00
C43    C     0.71500   0.25740   0.08210   0.00000  Uiso   1.00
H44    H     0.69530   0.16090   0.09090   0.00000  Uiso   1.00
H45    H     0.89080   0.27850   0.10330   0.00000  Uiso   1.00
C46    C     0.60290   0.30600   0.90140   0.00000  Uiso   1.00
H47    H     0.66510   0.24780   0.81400   0.00000  Uiso   1.00
C48    C     0.31790   0.29630   0.87240   0.00000  Uiso   1.00
loop_
_geom_bond_atom_site_label_1
_geom_bond_atom_site_label_2
_geom_bond_distance
_geom_bond_site_symmetry_2
_ccdc_geom_bond_type
Co1    O3      2.044   1_665 S
Co1    O7      2.139   1_565 S
Co1    O10     2.002   1_655 S
Co1    O6      2.026   .     S
Co1    O36     2.073   1_565 S
Co1    O13     2.379   .     S
P2     O6      1.495   .     S
P2     O11     1.616   .     S
P2     O12     1.524   .     S
P2     O10     1.519   .     S
O3     Co1     2.044   1_445 S
O3     H4      0.851   .     S
O3     H5      0.851   .     S
O7     Co1     2.139   1_545 S
O7     H8      0.851   .     S
O7     H9      0.851   .     S
O10    Co1     2.002   1_455 S
O11    C19     1.451   .     S
O12    Co25    2.073   .     S
O13    C24     1.246   .     S
O14    C24     1.250   .     S
N15    H16     0.890   .     S
N15    H17     0.890   .     S
N15    H18     0.890   .     S
N15    C22     1.491   .     S
C19    H20     0.970   .     S
C19    H21     0.970   .     S
C19    C22     1.509   1_556 S
C22    H23     0.980   .     S
C22    C24     1.537   .     S
C22    C19     1.509   1_554 S
Co25   O27     2.044   1_455 S
Co25   O31     2.139   .     S
Co25   O34     2.002   1_455 S
Co25   O30     2.026   .     S
Co25   O37     2.379   .     S
P26    O30     1.495   .     S
P26    O35     1.616   .     S
P26    O36     1.524   .     S
P26    O34     1.519   .     S
O27    Co25    2.044   1_655 S
O27    H28     0.851   .     S
O27    H29     0.851   .     S
O31    H32     0.851   .     S
O31    H33     0.851   .     S
O34    Co25    2.002   1_655 S
O35    C43     1.451   .     S
O36    Co1     2.073   1_545 S
O37    C48     1.246   .     S
O38    C48     1.250   .     S
N39    H40     0.890   .     S
N39    H41     0.890   .     S
N39    H42     0.890   .     S
N39    C46     1.491   .     S
C43    H44     0.970   .     S
C43    H45     0.970   .     S
C43    C46     1.509   1_554 S
C46    H47     0.980   .     S
C46    C48     1.537   .     S
C46    C43     1.509   1_556 S
