data_KESHAT_FSR
_audit_creation_date              2024-06-11
_audit_creation_method            'Materials Studio'
_symmetry_space_group_name_H-M    'P1'
_symmetry_Int_Tables_number       1
_symmetry_cell_setting            triclinic
loop_
_symmetry_equiv_pos_as_xyz
  x,y,z
_cell_length_a                    10.3779
_cell_length_b                    11.3829
_cell_length_c                    22.3878
_cell_angle_alpha                 90.0000
_cell_angle_beta                  97.3990
_cell_angle_gamma                 90.0000
loop_
_atom_site_label
_atom_site_type_symbol
_atom_site_fract_x
_atom_site_fract_y
_atom_site_fract_z
_atom_site_U_iso_or_equiv
_atom_site_adp_type
_atom_site_occupancy
C1     C     0.91690   0.82040   0.81930   0.00000  Uiso   1.00
C2     C     0.84730   0.86000   0.76132   0.00000  Uiso   1.00
C3     C     0.74240   0.93460   0.74707   0.00000  Uiso   1.00
C4     C     0.66080   0.01130   0.78169   0.00000  Uiso   1.00
C5     C     0.81190   0.86860   0.66380   0.00000  Uiso   1.00
C6     C     0.81960   0.85310   0.59860   0.00000  Uiso   1.00
H7     H     0.79570   0.77410   0.58700   0.00000  Uiso   1.00
H8     H     0.90670   0.86820   0.59060   0.00000  Uiso   1.00
H9     H     0.76120   0.90710   0.57600   0.00000  Uiso   1.00
C10    C     0.69520   0.84830   0.08718   0.00000  Uiso   1.00
C11    C     0.82720   0.85130   0.12276   0.00000  Uiso   1.00
C12    C     0.94810   0.86940   0.10557   0.00000  Uiso   1.00
C13    C     0.00450   0.88280   0.04847   0.00000  Uiso   1.00
C14    C     0.96270   0.84650   0.20458   0.00000  Uiso   1.00
C15    C     0.02440   0.83840   0.26810   0.00000  Uiso   1.00
H16    H     0.11580   0.82410   0.26900   0.00000  Uiso   1.00
H17    H     0.01160   0.91090   0.28850   0.00000  Uiso   1.00
H18    H     0.98570   0.77520   0.28790   0.00000  Uiso   1.00
C19    C     0.23560   0.95910   0.71452   0.00000  Uiso   1.00
C20    C     0.29620   0.91300   0.77723   0.00000  Uiso   1.00
N21    N     0.88980   0.82040   0.70868   0.00000  Uiso   1.00
N22    N     0.72320   0.93740   0.68545   0.00000  Uiso   1.00
H23    H     0.66380   0.97700   0.66390   0.00000  Uiso   1.00
N24    N     0.83770   0.83710   0.18433   0.00000  Uiso   1.00
N25    N     0.03080   0.86650   0.15850   0.00000  Uiso   1.00
H26    H     0.11360   0.87600   0.16170   0.00000  Uiso   1.00
O27    O     0.02120   0.76510   0.81752   0.00000  Uiso   1.00
O28    O     0.87190   0.83990   0.86732   0.00000  Uiso   1.00
O29    O     0.68560   0.01990   0.83783   0.00000  Uiso   1.00
O30    O     0.57380   0.06580   0.74963   0.00000  Uiso   1.00
O31    O     0.60080   0.82040   0.11493   0.00000  Uiso   1.00
O32    O     0.68050   0.87580   0.03292   0.00000  Uiso   1.00
O33    O     0.93720   0.86620   0.99917   0.00000  Uiso   1.00
O34    O     0.12410   0.90810   0.05444   0.00000  Uiso   1.00
O35    O     0.15810   0.89180   0.68414   0.00000  Uiso   1.00
O36    O     0.26800   0.05960   0.69920   0.00000  Uiso   1.00
O37    O     0.26900   0.81040   0.79031   0.00000  Uiso   1.00
O38    O     0.36860   0.98210   0.80925   0.00000  Uiso   1.00
O39    O     0.60660   0.08650   0.96728   0.00000  Uiso   1.00
O40    O     0.50910   0.86260   0.90202   0.00000  Uiso   1.00
O41    O     0.72260   0.69850   0.93850   0.00000  Uiso   1.00
Pr42   Pr    0.73776   0.91876   0.93531   0.00000  Uiso   1.00
Pr43   Pr    0.10851   0.69150   0.72533   0.00000  Uiso   1.00
H44    H     0.54000   0.11400   0.94550   0.00000  Uiso   1.00
H45    H     0.59700   0.10100   0.00370   0.00000  Uiso   1.00
H46    H     0.47200   0.79840   0.90950   0.00000  Uiso   1.00
H47    H     0.45700   0.89800   0.87520   0.00000  Uiso   1.00
H48    H     0.66300   0.66220   0.95280   0.00000  Uiso   1.00
H49    H     0.78000   0.65370   0.92760   0.00000  Uiso   1.00
C50    C     0.58310   0.32040   0.68070   0.00000  Uiso   1.00
C51    C     0.65270   0.36000   0.73868   0.00000  Uiso   1.00
C52    C     0.75760   0.43460   0.75293   0.00000  Uiso   1.00
C53    C     0.83920   0.51130   0.71831   0.00000  Uiso   1.00
C54    C     0.68810   0.36860   0.83620   0.00000  Uiso   1.00
C55    C     0.68040   0.35310   0.90140   0.00000  Uiso   1.00
H56    H     0.70430   0.27410   0.91300   0.00000  Uiso   1.00
H57    H     0.59330   0.36820   0.90940   0.00000  Uiso   1.00
H58    H     0.73880   0.40710   0.92400   0.00000  Uiso   1.00
C59    C     0.80480   0.34830   0.41282   0.00000  Uiso   1.00
C60    C     0.67280   0.35130   0.37724   0.00000  Uiso   1.00
C61    C     0.55190   0.36940   0.39443   0.00000  Uiso   1.00
C62    C     0.49550   0.38280   0.45153   0.00000  Uiso   1.00
C63    C     0.53730   0.34650   0.29542   0.00000  Uiso   1.00
C64    C     0.47560   0.33840   0.23190   0.00000  Uiso   1.00
H65    H     0.38420   0.32410   0.23100   0.00000  Uiso   1.00
H66    H     0.48840   0.41090   0.21150   0.00000  Uiso   1.00
H67    H     0.51430   0.27520   0.21210   0.00000  Uiso   1.00
C68    C     0.26440   0.45910   0.78548   0.00000  Uiso   1.00
C69    C     0.20380   0.41300   0.72277   0.00000  Uiso   1.00
N70    N     0.61020   0.32040   0.79132   0.00000  Uiso   1.00
N71    N     0.77680   0.43740   0.81455   0.00000  Uiso   1.00
H72    H     0.83620   0.47700   0.83610   0.00000  Uiso   1.00
N73    N     0.66230   0.33710   0.31567   0.00000  Uiso   1.00
N74    N     0.46920   0.36650   0.34150   0.00000  Uiso   1.00
H75    H     0.38640   0.37600   0.33830   0.00000  Uiso   1.00
O76    O     0.47880   0.26510   0.68248   0.00000  Uiso   1.00
O77    O     0.62810   0.33990   0.63268   0.00000  Uiso   1.00
O78    O     0.81440   0.51990   0.66217   0.00000  Uiso   1.00
O79    O     0.92620   0.56580   0.75037   0.00000  Uiso   1.00
O80    O     0.89920   0.32040   0.38507   0.00000  Uiso   1.00
O81    O     0.81950   0.37580   0.46708   0.00000  Uiso   1.00
O82    O     0.56280   0.36620   0.50083   0.00000  Uiso   1.00
O83    O     0.37590   0.40810   0.44556   0.00000  Uiso   1.00
O84    O     0.34190   0.39180   0.81586   0.00000  Uiso   1.00
O85    O     0.23200   0.55960   0.80080   0.00000  Uiso   1.00
O86    O     0.23100   0.31040   0.70969   0.00000  Uiso   1.00
O87    O     0.13140   0.48210   0.69075   0.00000  Uiso   1.00
O88    O     0.89340   0.58650   0.53272   0.00000  Uiso   1.00
O89    O     0.99090   0.36260   0.59798   0.00000  Uiso   1.00
O90    O     0.77740   0.19850   0.56150   0.00000  Uiso   1.00
Pr91   Pr    0.76224   0.41876   0.56469   0.00000  Uiso   1.00
Pr92   Pr    0.39149   0.19150   0.77467   0.00000  Uiso   1.00
H93    H     0.96000   0.61400   0.55450   0.00000  Uiso   1.00
H94    H     0.90300   0.60100   0.49630   0.00000  Uiso   1.00
H95    H     0.02800   0.29840   0.59050   0.00000  Uiso   1.00
H96    H     0.04300   0.39800   0.62480   0.00000  Uiso   1.00
H97    H     0.83700   0.16220   0.54720   0.00000  Uiso   1.00
H98    H     0.72000   0.15370   0.57240   0.00000  Uiso   1.00
C99    C     0.08310   0.17960   0.18070   0.00000  Uiso   1.00
C100   C     0.15270   0.14000   0.23868   0.00000  Uiso   1.00
C101   C     0.25760   0.06540   0.25293   0.00000  Uiso   1.00
C102   C     0.33920   0.98870   0.21831   0.00000  Uiso   1.00
C103   C     0.18810   0.13140   0.33620   0.00000  Uiso   1.00
C104   C     0.18040   0.14690   0.40140   0.00000  Uiso   1.00
H105   H     0.20430   0.22590   0.41300   0.00000  Uiso   1.00
H106   H     0.09330   0.13180   0.40940   0.00000  Uiso   1.00
H107   H     0.23880   0.09290   0.42400   0.00000  Uiso   1.00
C108   C     0.30480   0.15170   0.91282   0.00000  Uiso   1.00
C109   C     0.17280   0.14870   0.87724   0.00000  Uiso   1.00
C110   C     0.05190   0.13060   0.89443   0.00000  Uiso   1.00
C111   C     0.99550   0.11720   0.95153   0.00000  Uiso   1.00
C112   C     0.03730   0.15350   0.79542   0.00000  Uiso   1.00
C113   C     0.97560   0.16160   0.73190   0.00000  Uiso   1.00
H114   H     0.88420   0.17590   0.73100   0.00000  Uiso   1.00
H115   H     0.98840   0.08910   0.71150   0.00000  Uiso   1.00
H116   H     0.01430   0.22480   0.71210   0.00000  Uiso   1.00
C117   C     0.76440   0.04090   0.28548   0.00000  Uiso   1.00
C118   C     0.70380   0.08700   0.22277   0.00000  Uiso   1.00
N119   N     0.11020   0.17960   0.29132   0.00000  Uiso   1.00
N120   N     0.27680   0.06260   0.31455   0.00000  Uiso   1.00
H121   H     0.33620   0.02300   0.33610   0.00000  Uiso   1.00
N122   N     0.16230   0.16290   0.81567   0.00000  Uiso   1.00
N123   N     0.96920   0.13350   0.84150   0.00000  Uiso   1.00
H124   H     0.88640   0.12400   0.83830   0.00000  Uiso   1.00
O125   O     0.97880   0.23490   0.18248   0.00000  Uiso   1.00
O126   O     0.12810   0.16010   0.13268   0.00000  Uiso   1.00
O127   O     0.31440   0.98010   0.16217   0.00000  Uiso   1.00
O128   O     0.42620   0.93420   0.25037   0.00000  Uiso   1.00
O129   O     0.39920   0.17960   0.88507   0.00000  Uiso   1.00
O130   O     0.31950   0.12420   0.96708   0.00000  Uiso   1.00
O131   O     0.06280   0.13380   0.00083   0.00000  Uiso   1.00
O132   O     0.87590   0.09190   0.94556   0.00000  Uiso   1.00
O133   O     0.84190   0.10820   0.31586   0.00000  Uiso   1.00
O134   O     0.73200   0.94040   0.30080   0.00000  Uiso   1.00
O135   O     0.73100   0.18960   0.20969   0.00000  Uiso   1.00
O136   O     0.63140   0.01790   0.19075   0.00000  Uiso   1.00
O137   O     0.39340   0.91350   0.03272   0.00000  Uiso   1.00
O138   O     0.49090   0.13740   0.09798   0.00000  Uiso   1.00
O139   O     0.27740   0.30150   0.06150   0.00000  Uiso   1.00
Pr140  Pr    0.26224   0.08124   0.06469   0.00000  Uiso   1.00
Pr141  Pr    0.89149   0.30850   0.27467   0.00000  Uiso   1.00
H142   H     0.46000   0.88600   0.05450   0.00000  Uiso   1.00
H143   H     0.40300   0.89900   0.99630   0.00000  Uiso   1.00
H144   H     0.52800   0.20160   0.09050   0.00000  Uiso   1.00
H145   H     0.54300   0.10200   0.12480   0.00000  Uiso   1.00
H146   H     0.33700   0.33780   0.04720   0.00000  Uiso   1.00
H147   H     0.22000   0.34630   0.07240   0.00000  Uiso   1.00
C148   C     0.41690   0.67960   0.31930   0.00000  Uiso   1.00
C149   C     0.34730   0.64000   0.26132   0.00000  Uiso   1.00
C150   C     0.24240   0.56540   0.24707   0.00000  Uiso   1.00
C151   C     0.16080   0.48870   0.28169   0.00000  Uiso   1.00
C152   C     0.31190   0.63140   0.16380   0.00000  Uiso   1.00
C153   C     0.31960   0.64690   0.09860   0.00000  Uiso   1.00
H154   H     0.29570   0.72590   0.08700   0.00000  Uiso   1.00
H155   H     0.40670   0.63180   0.09060   0.00000  Uiso   1.00
H156   H     0.26120   0.59290   0.07600   0.00000  Uiso   1.00
C157   C     0.19520   0.65170   0.58718   0.00000  Uiso   1.00
C158   C     0.32720   0.64870   0.62276   0.00000  Uiso   1.00
C159   C     0.44810   0.63060   0.60557   0.00000  Uiso   1.00
C160   C     0.50450   0.61720   0.54847   0.00000  Uiso   1.00
C161   C     0.46270   0.65350   0.70458   0.00000  Uiso   1.00
C162   C     0.52440   0.66160   0.76810   0.00000  Uiso   1.00
H163   H     0.61580   0.67590   0.76900   0.00000  Uiso   1.00
H164   H     0.51160   0.58910   0.78850   0.00000  Uiso   1.00
H165   H     0.48570   0.72480   0.78790   0.00000  Uiso   1.00
C166   C     0.73560   0.54090   0.21452   0.00000  Uiso   1.00
C167   C     0.79620   0.58700   0.27723   0.00000  Uiso   1.00
N168   N     0.38980   0.67960   0.20868   0.00000  Uiso   1.00
N169   N     0.22320   0.56260   0.18545   0.00000  Uiso   1.00
H170   H     0.16380   0.52300   0.16390   0.00000  Uiso   1.00
N171   N     0.33770   0.66290   0.68433   0.00000  Uiso   1.00
N172   N     0.53080   0.63350   0.65850   0.00000  Uiso   1.00
H173   H     0.61360   0.62400   0.66170   0.00000  Uiso   1.00
O174   O     0.52120   0.73490   0.31752   0.00000  Uiso   1.00
O175   O     0.37190   0.66010   0.36732   0.00000  Uiso   1.00
O176   O     0.18560   0.48010   0.33783   0.00000  Uiso   1.00
O177   O     0.07380   0.43420   0.24963   0.00000  Uiso   1.00
O178   O     0.10080   0.67960   0.61493   0.00000  Uiso   1.00
O179   O     0.18050   0.62420   0.53292   0.00000  Uiso   1.00
O180   O     0.43720   0.63380   0.49917   0.00000  Uiso   1.00
O181   O     0.62410   0.59190   0.55444   0.00000  Uiso   1.00
O182   O     0.65810   0.60820   0.18414   0.00000  Uiso   1.00
O183   O     0.76800   0.44040   0.19920   0.00000  Uiso   1.00
O184   O     0.76900   0.68960   0.29031   0.00000  Uiso   1.00
O185   O     0.86860   0.51790   0.30925   0.00000  Uiso   1.00
O186   O     0.10660   0.41350   0.46728   0.00000  Uiso   1.00
O187   O     0.00910   0.63740   0.40202   0.00000  Uiso   1.00
O188   O     0.22260   0.80150   0.43850   0.00000  Uiso   1.00
Pr189  Pr    0.23776   0.58124   0.43531   0.00000  Uiso   1.00
Pr190  Pr    0.60851   0.80850   0.22533   0.00000  Uiso   1.00
H191   H     0.04000   0.38600   0.44550   0.00000  Uiso   1.00
H192   H     0.09700   0.39900   0.50370   0.00000  Uiso   1.00
H193   H     0.97200   0.70160   0.40950   0.00000  Uiso   1.00
H194   H     0.95700   0.60200   0.37520   0.00000  Uiso   1.00
H195   H     0.16300   0.83780   0.45280   0.00000  Uiso   1.00
H196   H     0.28000   0.84630   0.42760   0.00000  Uiso   1.00
loop_
_geom_bond_atom_site_label_1
_geom_bond_atom_site_label_2
_geom_bond_distance
_geom_bond_site_symmetry_2
_ccdc_geom_bond_type
C1     C2      1.473   .     S
C1     O27     1.257   1_655 S
C1     O28     1.246   .     S
C2     C3      1.385   .     S
C2     N21     1.386   .     S
C3     C4      1.500   1_565 S
C3     N22     1.369   .     S
C4     C3      1.500   1_545 S
C4     O29     1.254   .     S
C4     O30     1.244   .     S
C5     C6      1.483   .     S
C5     N21     1.325   .     S
C5     N22     1.346   .     S
C6     H7      0.960   .     S
C6     H8      0.959   .     S
C6     H9      0.960   .     S
C10    C11     1.494   .     S
C10    O31     1.266   .     S
C10    O32     1.245   .     S
C11    C12     1.374   .     S
C11    N24     1.378   .     S
C12    C13     1.481   1_655 S
C12    N25     1.371   1_655 S
C13    C12     1.481   1_455 S
C13    O33     1.242   1_454 S
C13    O34     1.264   .     S
C14    C15     1.485   1_655 S
C14    N24     1.322   .     S
C14    N25     1.343   1_655 S
C15    C14     1.485   1_455 S
C15    H16     0.960   .     S
C15    H17     0.961   .     S
C15    H18     0.960   1_455 S
H18    C15     0.960   1_655 S
C19    C20     1.554   .     S
C19    O35     1.247   .     S
C19    O36     1.253   1_565 S
C20    O37     1.245   .     S
C20    O38     1.248   .     S
N21    Pr43    2.688   1_655 S
N22    H23     0.860   .     S
N24    Pr190   2.677   .     S
N25    C12     1.371   1_455 S
N25    H26     0.860   .     S
N25    C14     1.343   1_455 S
O27    C1      1.257   1_455 S
O27    Pr43    2.503   .     S
O28    Pr42    2.368   .     S
O29    Pr42    2.465   1_545 S
O30    Pr92    2.493   .     S
O31    Pr190   2.466   .     S
O32    Pr42    2.388   1_554 S
O33    C13     1.242   1_656 S
O33    Pr42    2.434   .     S
O34    Pr140   2.431   1_565 S
O35    Pr43    2.537   .     S
O36    C19     1.253   1_545 S
O36    Pr92    2.489   .     S
O37    Pr43    2.469   .     S
O38    Pr92    2.527   1_565 S
O39    Pr42    2.502   1_545 S
O39    H44     0.852   .     S
O39    H45     0.850   1_556 S
O40    Pr42    2.478   .     S
O40    H46     0.853   .     S
O40    H47     0.855   .     S
O41    Pr42    2.514   .     S
O41    H48     0.841   .     S
O41    H49     0.844   .     S
Pr42   O29     2.465   1_565 S
Pr42   O39     2.502   1_565 S
Pr42   O132    2.431   1_565 S
Pr42   O32     2.388   1_556 S
Pr43   N21     2.688   1_455 S
Pr43   N171    2.677   .     S
Pr43   O79     2.493   1_455 S
Pr43   O178    2.466   .     S
Pr43   O85     2.489   .     S
Pr43   O87     2.527   .     S
H45    O39     0.850   1_554 S
C50    C51     1.473   .     S
C50    O76     1.257   .     S
C50    O77     1.246   .     S
C51    C52     1.385   .     S
C51    N70     1.386   .     S
C52    C53     1.500   .     S
C52    N71     1.369   .     S
C53    O78     1.254   .     S
C53    O79     1.244   .     S
C54    C55     1.483   .     S
C54    N70     1.325   .     S
C54    N71     1.346   .     S
C55    H56     0.960   .     S
C55    H57     0.959   .     S
C55    H58     0.960   .     S
C59    C60     1.494   .     S
C59    O80     1.266   .     S
C59    O81     1.245   .     S
C60    C61     1.374   .     S
C60    N73     1.378   .     S
C61    C62     1.481   .     S
C61    N74     1.371   .     S
C62    O82     1.242   .     S
C62    O83     1.264   .     S
C63    C64     1.485   .     S
C63    N73     1.322   .     S
C63    N74     1.343   .     S
C64    H65     0.960   .     S
C64    H66     0.961   .     S
C64    H67     0.960   .     S
C68    C69     1.554   .     S
C68    O84     1.247   .     S
C68    O85     1.253   .     S
C69    O86     1.245   .     S
C69    O87     1.248   .     S
N70    Pr92    2.688   .     S
N71    H72     0.860   .     S
N73    Pr141   2.677   .     S
N74    H75     0.860   .     S
O76    Pr92    2.503   .     S
O77    Pr91    2.368   .     S
O78    Pr91    2.465   .     S
O79    Pr43    2.493   1_655 S
O80    Pr141   2.466   .     S
O81    Pr91    2.388   .     S
O82    Pr91    2.434   .     S
O83    Pr189   2.431   .     S
O84    Pr92    2.537   .     S
O86    Pr92    2.469   .     S
O88    Pr91    2.502   .     S
O88    H93     0.852   .     S
O88    H94     0.850   .     S
O89    Pr91    2.478   .     S
O89    H95     0.853   1_655 S
O89    H96     0.855   1_655 S
O90    Pr91    2.514   .     S
O90    H97     0.841   .     S
O90    H98     0.844   .     S
Pr91   O181    2.431   .     S
Pr92   N122    2.677   .     S
Pr92   O129    2.466   .     S
Pr92   O38     2.527   1_545 S
H95    O89     0.853   1_455 S
H96    O89     0.855   1_455 S
C99    C100    1.473   .     S
C99    O125    1.257   1_455 S
C99    O126    1.246   .     S
C100   C101    1.385   .     S
C100   N119    1.386   .     S
C101   C102    1.500   1_545 S
C101   N120    1.369   .     S
C102   C101    1.500   1_565 S
C102   O127    1.254   .     S
C102   O128    1.244   .     S
C103   C104    1.483   .     S
C103   N119    1.325   .     S
C103   N120    1.346   .     S
C104   H105    0.960   .     S
C104   H106    0.959   .     S
C104   H107    0.960   .     S
C108   C109    1.494   .     S
C108   O129    1.266   .     S
C108   O130    1.245   .     S
C109   C110    1.374   .     S
C109   N122    1.378   .     S
C110   C111    1.481   1_455 S
C110   N123    1.371   1_455 S
C111   C110    1.481   1_655 S
C111   O131    1.242   1_656 S
C111   O132    1.264   .     S
C112   C113    1.485   1_455 S
C112   N122    1.322   .     S
C112   N123    1.343   1_455 S
C113   C112    1.485   1_655 S
C113   H114    0.960   .     S
C113   H115    0.961   .     S
C113   H116    0.960   1_655 S
H116   C113    0.960   1_455 S
C117   C118    1.554   .     S
C117   O133    1.247   .     S
C117   O134    1.253   1_545 S
C118   O135    1.245   .     S
C118   O136    1.248   .     S
N119   Pr141   2.688   1_455 S
N120   H121    0.860   .     S
N123   C110    1.371   1_655 S
N123   H124    0.860   .     S
N123   C112    1.343   1_655 S
O125   C99     1.257   1_655 S
O125   Pr141   2.503   .     S
O126   Pr140   2.368   .     S
O127   Pr140   2.465   1_565 S
O128   Pr190   2.493   .     S
O130   Pr140   2.388   1_556 S
O131   C111    1.242   1_454 S
O131   Pr140   2.434   .     S
O132   Pr42    2.431   1_545 S
O133   Pr141   2.537   .     S
O134   C117    1.253   1_565 S
O134   Pr190   2.489   .     S
O135   Pr141   2.469   .     S
O136   Pr190   2.527   1_545 S
O137   Pr140   2.502   1_565 S
O137   H142    0.852   .     S
O137   H143    0.850   1_554 S
O138   Pr140   2.478   .     S
O138   H144    0.853   .     S
O138   H145    0.855   .     S
O139   Pr140   2.514   .     S
O139   H146    0.841   .     S
O139   H147    0.844   .     S
Pr140  O127    2.465   1_545 S
Pr140  O137    2.502   1_545 S
Pr140  O34     2.431   1_545 S
Pr140  O130    2.388   1_554 S
Pr141  N119    2.688   1_655 S
Pr141  O177    2.493   1_655 S
Pr141  O183    2.489   .     S
Pr141  O185    2.527   .     S
H143   O137    0.850   1_556 S
C148   C149    1.473   .     S
C148   O174    1.257   .     S
C148   O175    1.246   .     S
C149   C150    1.385   .     S
C149   N168    1.386   .     S
C150   C151    1.500   .     S
C150   N169    1.369   .     S
C151   O176    1.254   .     S
C151   O177    1.244   .     S
C152   C153    1.483   .     S
C152   N168    1.325   .     S
C152   N169    1.346   .     S
C153   H154    0.960   .     S
C153   H155    0.959   .     S
C153   H156    0.960   .     S
C157   C158    1.494   .     S
C157   O178    1.266   .     S
C157   O179    1.245   .     S
C158   C159    1.374   .     S
C158   N171    1.378   .     S
C159   C160    1.481   .     S
C159   N172    1.371   .     S
C160   O180    1.242   .     S
C160   O181    1.264   .     S
C161   C162    1.485   .     S
C161   N171    1.322   .     S
C161   N172    1.343   .     S
C162   H163    0.960   .     S
C162   H164    0.961   .     S
C162   H165    0.960   .     S
C166   C167    1.554   .     S
C166   O182    1.247   .     S
C166   O183    1.253   .     S
C167   O184    1.245   .     S
C167   O185    1.248   .     S
N168   Pr190   2.688   .     S
N169   H170    0.860   .     S
N172   H173    0.860   .     S
O174   Pr190   2.503   .     S
O175   Pr189   2.368   .     S
O176   Pr189   2.465   .     S
O177   Pr141   2.493   1_455 S
O179   Pr189   2.388   .     S
O180   Pr189   2.434   .     S
O182   Pr190   2.537   .     S
O184   Pr190   2.469   .     S
O186   Pr189   2.502   .     S
O186   H191    0.852   .     S
O186   H192    0.850   .     S
O187   Pr189   2.478   .     S
O187   H193    0.853   1_455 S
O187   H194    0.855   1_455 S
O188   Pr189   2.514   .     S
O188   H195    0.841   .     S
O188   H196    0.844   .     S
Pr190  O136    2.527   1_565 S
H193   O187    0.853   1_655 S
H194   O187    0.855   1_655 S
