data_KEWQUB_FSR
_audit_creation_date              2024-06-11
_audit_creation_method            'Materials Studio'
_symmetry_space_group_name_H-M    'P1'
_symmetry_Int_Tables_number       1
_symmetry_cell_setting            triclinic
loop_
_symmetry_equiv_pos_as_xyz
  x,y,z
_cell_length_a                    26.6907
_cell_length_b                    22.7441
_cell_length_c                    5.7141
_cell_angle_alpha                 90.0000
_cell_angle_beta                  90.0000
_cell_angle_gamma                 90.0000
loop_
_atom_site_label
_atom_site_type_symbol
_atom_site_fract_x
_atom_site_fract_y
_atom_site_fract_z
_atom_site_U_iso_or_equiv
_atom_site_adp_type
_atom_site_occupancy
O1     O     0.18550   0.33890   0.15630   0.00000  Uiso   1.00
O2     O     0.07709   0.18008   0.07760   0.00000  Uiso   1.00
Na3    Na    0.12910   0.35629   0.77790   0.00000  Uiso   1.00
O4     O     0.08618   0.31271   0.45720   0.00000  Uiso   1.00
O5     O     0.18991   0.37900   0.51380   0.00000  Uiso   1.00
O6     O     0.09868   0.45040   0.70710   0.00000  Uiso   1.00
C7     C     0.20460   0.37340   0.31060   0.00000  Uiso   1.00
C8     C     0.25050   0.40740   0.23540   0.00000  Uiso   1.00
C9     C     0.27180   0.44740   0.39080   0.00000  Uiso   1.00
C10    C     0.27310   0.39780   0.02260   0.00000  Uiso   1.00
C11    C     0.31560   0.47630   0.33570   0.00000  Uiso   1.00
H12    H     0.25600   0.45490   0.53660   0.00000  Uiso   1.00
C13    C     0.31690   0.42690   0.96430   0.00000  Uiso   1.00
H14    H     0.25860   0.37100   0.91480   0.00000  Uiso   1.00
C15    C     0.33760   0.46570   0.12160   0.00000  Uiso   1.00
H16    H     0.33030   0.50300   0.44330   0.00000  Uiso   1.00
H17    H     0.33250   0.42010   0.81730   0.00000  Uiso   1.00
S18    S     0.39395   0.50178   0.04570   0.00000  Uiso   1.00
O19    O     0.39333   0.51300   0.79850   0.00000  Uiso   1.00
C20    C     0.44180   0.45010   0.10280   0.00000  Uiso   1.00
C21    C     0.45540   0.40970   0.93010   0.00000  Uiso   1.00
C22    C     0.46620   0.45070   0.31520   0.00000  Uiso   1.00
H23    H     0.43750   0.40810   0.78650   0.00000  Uiso   1.00
C24    C     0.49480   0.37250   0.96990   0.00000  Uiso   1.00
C25    C     0.50490   0.41160   0.35340   0.00000  Uiso   1.00
H26    H     0.45650   0.47770   0.43370   0.00000  Uiso   1.00
C27    C     0.51930   0.37300   0.18120   0.00000  Uiso   1.00
H28    H     0.50520   0.34610   0.85060   0.00000  Uiso   1.00
H29    H     0.52160   0.41130   0.50010   0.00000  Uiso   1.00
C30    C     0.56360   0.33310   0.21820   0.00000  Uiso   1.00
O31    O     0.31450   0.66110   0.65630   0.00000  Uiso   1.00
O32    O     0.42291   0.81992   0.57760   0.00000  Uiso   1.00
Na33   Na    0.37090   0.64371   0.27790   0.00000  Uiso   1.00
O34    O     0.41382   0.68729   0.95720   0.00000  Uiso   1.00
O35    O     0.31009   0.62100   0.01380   0.00000  Uiso   1.00
O36    O     0.40132   0.54960   0.20710   0.00000  Uiso   1.00
C37    C     0.29540   0.62660   0.81060   0.00000  Uiso   1.00
C38    C     0.24950   0.59260   0.73540   0.00000  Uiso   1.00
C39    C     0.22820   0.55260   0.89080   0.00000  Uiso   1.00
C40    C     0.22690   0.60220   0.52260   0.00000  Uiso   1.00
C41    C     0.18440   0.52370   0.83570   0.00000  Uiso   1.00
H42    H     0.24400   0.54510   0.03660   0.00000  Uiso   1.00
C43    C     0.18310   0.57310   0.46430   0.00000  Uiso   1.00
H44    H     0.24140   0.62900   0.41480   0.00000  Uiso   1.00
C45    C     0.16240   0.53430   0.62160   0.00000  Uiso   1.00
H46    H     0.16970   0.49700   0.94330   0.00000  Uiso   1.00
H47    H     0.16750   0.57990   0.31730   0.00000  Uiso   1.00
S48    S     0.10605   0.49822   0.54570   0.00000  Uiso   1.00
O49    O     0.10667   0.48700   0.29850   0.00000  Uiso   1.00
C50    C     0.05820   0.54990   0.60280   0.00000  Uiso   1.00
C51    C     0.04460   0.59030   0.43010   0.00000  Uiso   1.00
C52    C     0.03380   0.54930   0.81520   0.00000  Uiso   1.00
H53    H     0.06250   0.59190   0.28650   0.00000  Uiso   1.00
C54    C     0.00520   0.62750   0.46990   0.00000  Uiso   1.00
C55    C     0.99510   0.58840   0.85340   0.00000  Uiso   1.00
H56    H     0.04350   0.52230   0.93370   0.00000  Uiso   1.00
C57    C     0.98070   0.62700   0.68120   0.00000  Uiso   1.00
H58    H     0.99480   0.65390   0.35060   0.00000  Uiso   1.00
H59    H     0.97840   0.58870   0.00010   0.00000  Uiso   1.00
C60    C     0.93640   0.66690   0.71820   0.00000  Uiso   1.00
O61    O     0.81450   0.83890   0.84370   0.00000  Uiso   1.00
O62    O     0.92291   0.68008   0.92240   0.00000  Uiso   1.00
Na63   Na    0.87090   0.85629   0.22210   0.00000  Uiso   1.00
O64    O     0.91382   0.81271   0.54280   0.00000  Uiso   1.00
O65    O     0.81009   0.87900   0.48620   0.00000  Uiso   1.00
O66    O     0.90132   0.95040   0.29290   0.00000  Uiso   1.00
C67    C     0.79540   0.87340   0.68940   0.00000  Uiso   1.00
C68    C     0.74950   0.90740   0.76460   0.00000  Uiso   1.00
C69    C     0.72820   0.94740   0.60920   0.00000  Uiso   1.00
C70    C     0.72690   0.89780   0.97740   0.00000  Uiso   1.00
C71    C     0.68440   0.97630   0.66430   0.00000  Uiso   1.00
H72    H     0.74400   0.95490   0.46340   0.00000  Uiso   1.00
C73    C     0.68310   0.92690   0.03570   0.00000  Uiso   1.00
H74    H     0.74140   0.87100   0.08520   0.00000  Uiso   1.00
C75    C     0.66240   0.96570   0.87840   0.00000  Uiso   1.00
H76    H     0.66970   0.00300   0.55670   0.00000  Uiso   1.00
H77    H     0.66750   0.92010   0.18270   0.00000  Uiso   1.00
S78    S     0.60605   0.00178   0.95430   0.00000  Uiso   1.00
O79    O     0.60667   0.01300   0.20150   0.00000  Uiso   1.00
C80    C     0.55820   0.95010   0.89720   0.00000  Uiso   1.00
C81    C     0.54460   0.90970   0.06990   0.00000  Uiso   1.00
C82    C     0.53380   0.95070   0.68480   0.00000  Uiso   1.00
H83    H     0.56250   0.90810   0.21350   0.00000  Uiso   1.00
C84    C     0.50520   0.87250   0.03010   0.00000  Uiso   1.00
C85    C     0.49510   0.91160   0.64660   0.00000  Uiso   1.00
H86    H     0.54350   0.97770   0.56630   0.00000  Uiso   1.00
C87    C     0.48070   0.87300   0.81880   0.00000  Uiso   1.00
H88    H     0.49480   0.84610   0.14940   0.00000  Uiso   1.00
H89    H     0.47840   0.91130   0.49990   0.00000  Uiso   1.00
C90    C     0.43640   0.83310   0.78180   0.00000  Uiso   1.00
O91    O     0.68550   0.16110   0.34370   0.00000  Uiso   1.00
O92    O     0.57709   0.31992   0.42240   0.00000  Uiso   1.00
Na93   Na    0.62910   0.14371   0.72210   0.00000  Uiso   1.00
O94    O     0.58618   0.18729   0.04280   0.00000  Uiso   1.00
O95    O     0.68991   0.12100   0.98620   0.00000  Uiso   1.00
O96    O     0.59868   0.04960   0.79290   0.00000  Uiso   1.00
C97    C     0.70460   0.12660   0.18940   0.00000  Uiso   1.00
C98    C     0.75050   0.09260   0.26460   0.00000  Uiso   1.00
C99    C     0.77180   0.05260   0.10920   0.00000  Uiso   1.00
C100   C     0.77310   0.10220   0.47740   0.00000  Uiso   1.00
C101   C     0.81560   0.02370   0.16430   0.00000  Uiso   1.00
H102   H     0.75600   0.04510   0.96340   0.00000  Uiso   1.00
C103   C     0.81690   0.07310   0.53570   0.00000  Uiso   1.00
H104   H     0.75860   0.12900   0.58520   0.00000  Uiso   1.00
C105   C     0.83760   0.03430   0.37840   0.00000  Uiso   1.00
H106   H     0.83030   0.99700   0.05670   0.00000  Uiso   1.00
H107   H     0.83250   0.07990   0.68270   0.00000  Uiso   1.00
S108   S     0.89395   0.99822   0.45430   0.00000  Uiso   1.00
O109   O     0.89333   0.98700   0.70150   0.00000  Uiso   1.00
C110   C     0.94180   0.04990   0.39720   0.00000  Uiso   1.00
C111   C     0.95540   0.09030   0.56990   0.00000  Uiso   1.00
C112   C     0.96620   0.04930   0.18480   0.00000  Uiso   1.00
H113   H     0.93750   0.09190   0.71350   0.00000  Uiso   1.00
C114   C     0.99480   0.12750   0.53010   0.00000  Uiso   1.00
C115   C     0.00490   0.08840   0.14660   0.00000  Uiso   1.00
H116   H     0.95650   0.02230   0.06630   0.00000  Uiso   1.00
C117   C     0.01930   0.12700   0.31880   0.00000  Uiso   1.00
H118   H     0.00520   0.15390   0.64940   0.00000  Uiso   1.00
H119   H     0.02160   0.08870   0.99990   0.00000  Uiso   1.00
C120   C     0.06360   0.16690   0.28180   0.00000  Uiso   1.00
O121   O     0.81450   0.66110   0.84370   0.00000  Uiso   1.00
O122   O     0.92291   0.81992   0.92240   0.00000  Uiso   1.00
Na123  Na    0.87090   0.64371   0.22210   0.00000  Uiso   1.00
O124   O     0.91382   0.68729   0.54280   0.00000  Uiso   1.00
O125   O     0.81009   0.62100   0.48620   0.00000  Uiso   1.00
O126   O     0.90132   0.54960   0.29290   0.00000  Uiso   1.00
C127   C     0.79540   0.62660   0.68940   0.00000  Uiso   1.00
C128   C     0.74950   0.59260   0.76460   0.00000  Uiso   1.00
C129   C     0.72820   0.55260   0.60920   0.00000  Uiso   1.00
C130   C     0.72690   0.60220   0.97740   0.00000  Uiso   1.00
C131   C     0.68440   0.52370   0.66430   0.00000  Uiso   1.00
H132   H     0.74400   0.54510   0.46340   0.00000  Uiso   1.00
C133   C     0.68310   0.57310   0.03570   0.00000  Uiso   1.00
H134   H     0.74140   0.62900   0.08520   0.00000  Uiso   1.00
C135   C     0.66240   0.53430   0.87840   0.00000  Uiso   1.00
H136   H     0.66970   0.49700   0.55670   0.00000  Uiso   1.00
H137   H     0.66750   0.57990   0.18270   0.00000  Uiso   1.00
S138   S     0.60605   0.49822   0.95430   0.00000  Uiso   1.00
O139   O     0.60667   0.48700   0.20150   0.00000  Uiso   1.00
C140   C     0.55820   0.54990   0.89720   0.00000  Uiso   1.00
C141   C     0.54460   0.59030   0.06990   0.00000  Uiso   1.00
C142   C     0.53380   0.54930   0.68480   0.00000  Uiso   1.00
H143   H     0.56250   0.59190   0.21350   0.00000  Uiso   1.00
C144   C     0.50520   0.62750   0.03010   0.00000  Uiso   1.00
C145   C     0.49510   0.58840   0.64660   0.00000  Uiso   1.00
H146   H     0.54350   0.52230   0.56630   0.00000  Uiso   1.00
C147   C     0.48070   0.62700   0.81880   0.00000  Uiso   1.00
H148   H     0.49480   0.65390   0.14940   0.00000  Uiso   1.00
H149   H     0.47840   0.58870   0.49990   0.00000  Uiso   1.00
C150   C     0.43640   0.66690   0.78180   0.00000  Uiso   1.00
O151   O     0.68550   0.33890   0.34370   0.00000  Uiso   1.00
O152   O     0.57709   0.18008   0.42240   0.00000  Uiso   1.00
Na153  Na    0.62910   0.35629   0.72210   0.00000  Uiso   1.00
O154   O     0.58618   0.31271   0.04280   0.00000  Uiso   1.00
O155   O     0.68991   0.37900   0.98620   0.00000  Uiso   1.00
O156   O     0.59868   0.45040   0.79290   0.00000  Uiso   1.00
C157   C     0.70460   0.37340   0.18940   0.00000  Uiso   1.00
C158   C     0.75050   0.40740   0.26460   0.00000  Uiso   1.00
C159   C     0.77180   0.44740   0.10920   0.00000  Uiso   1.00
C160   C     0.77310   0.39780   0.47740   0.00000  Uiso   1.00
C161   C     0.81560   0.47630   0.16430   0.00000  Uiso   1.00
H162   H     0.75600   0.45490   0.96340   0.00000  Uiso   1.00
C163   C     0.81690   0.42690   0.53570   0.00000  Uiso   1.00
H164   H     0.75860   0.37100   0.58520   0.00000  Uiso   1.00
C165   C     0.83760   0.46570   0.37840   0.00000  Uiso   1.00
H166   H     0.83030   0.50300   0.05670   0.00000  Uiso   1.00
H167   H     0.83250   0.42010   0.68270   0.00000  Uiso   1.00
S168   S     0.89395   0.50178   0.45430   0.00000  Uiso   1.00
O169   O     0.89333   0.51300   0.70150   0.00000  Uiso   1.00
C170   C     0.94180   0.45010   0.39720   0.00000  Uiso   1.00
C171   C     0.95540   0.40970   0.56990   0.00000  Uiso   1.00
C172   C     0.96620   0.45070   0.18480   0.00000  Uiso   1.00
H173   H     0.93750   0.40810   0.71350   0.00000  Uiso   1.00
C174   C     0.99480   0.37250   0.53010   0.00000  Uiso   1.00
C175   C     0.00490   0.41160   0.14660   0.00000  Uiso   1.00
H176   H     0.95650   0.47770   0.06630   0.00000  Uiso   1.00
C177   C     0.01930   0.37300   0.31880   0.00000  Uiso   1.00
H178   H     0.00520   0.34610   0.64940   0.00000  Uiso   1.00
H179   H     0.02160   0.41130   0.99990   0.00000  Uiso   1.00
C180   C     0.06360   0.33310   0.28180   0.00000  Uiso   1.00
O181   O     0.18550   0.16110   0.15630   0.00000  Uiso   1.00
O182   O     0.07709   0.31992   0.07760   0.00000  Uiso   1.00
Na183  Na    0.12910   0.14371   0.77790   0.00000  Uiso   1.00
O184   O     0.08618   0.18729   0.45720   0.00000  Uiso   1.00
O185   O     0.18991   0.12100   0.51380   0.00000  Uiso   1.00
O186   O     0.09868   0.04960   0.70710   0.00000  Uiso   1.00
C187   C     0.20460   0.12660   0.31060   0.00000  Uiso   1.00
C188   C     0.25050   0.09260   0.23540   0.00000  Uiso   1.00
C189   C     0.27180   0.05260   0.39080   0.00000  Uiso   1.00
C190   C     0.27310   0.10220   0.02260   0.00000  Uiso   1.00
C191   C     0.31560   0.02370   0.33570   0.00000  Uiso   1.00
H192   H     0.25600   0.04510   0.53660   0.00000  Uiso   1.00
C193   C     0.31690   0.07310   0.96430   0.00000  Uiso   1.00
H194   H     0.25860   0.12900   0.91480   0.00000  Uiso   1.00
C195   C     0.33760   0.03430   0.12160   0.00000  Uiso   1.00
H196   H     0.33030   0.99700   0.44330   0.00000  Uiso   1.00
H197   H     0.33250   0.07990   0.81730   0.00000  Uiso   1.00
S198   S     0.39395   0.99822   0.04570   0.00000  Uiso   1.00
O199   O     0.39333   0.98700   0.79850   0.00000  Uiso   1.00
C200   C     0.44180   0.04990   0.10280   0.00000  Uiso   1.00
C201   C     0.45540   0.09030   0.93010   0.00000  Uiso   1.00
C202   C     0.46620   0.04930   0.31520   0.00000  Uiso   1.00
H203   H     0.43750   0.09190   0.78650   0.00000  Uiso   1.00
C204   C     0.49480   0.12750   0.96990   0.00000  Uiso   1.00
C205   C     0.50490   0.08840   0.35340   0.00000  Uiso   1.00
H206   H     0.45650   0.02230   0.43370   0.00000  Uiso   1.00
C207   C     0.51930   0.12700   0.18120   0.00000  Uiso   1.00
H208   H     0.50520   0.15390   0.85060   0.00000  Uiso   1.00
H209   H     0.52160   0.08870   0.50010   0.00000  Uiso   1.00
C210   C     0.56360   0.16690   0.21820   0.00000  Uiso   1.00
O211   O     0.31450   0.83890   0.65630   0.00000  Uiso   1.00
O212   O     0.42291   0.68008   0.57760   0.00000  Uiso   1.00
Na213  Na    0.37090   0.85629   0.27790   0.00000  Uiso   1.00
O214   O     0.41382   0.81271   0.95720   0.00000  Uiso   1.00
O215   O     0.31009   0.87900   0.01380   0.00000  Uiso   1.00
O216   O     0.40132   0.95040   0.20710   0.00000  Uiso   1.00
C217   C     0.29540   0.87340   0.81060   0.00000  Uiso   1.00
C218   C     0.24950   0.90740   0.73540   0.00000  Uiso   1.00
C219   C     0.22820   0.94740   0.89080   0.00000  Uiso   1.00
C220   C     0.22690   0.89780   0.52260   0.00000  Uiso   1.00
C221   C     0.18440   0.97630   0.83570   0.00000  Uiso   1.00
H222   H     0.24400   0.95490   0.03660   0.00000  Uiso   1.00
C223   C     0.18310   0.92690   0.46430   0.00000  Uiso   1.00
H224   H     0.24140   0.87100   0.41480   0.00000  Uiso   1.00
C225   C     0.16240   0.96570   0.62160   0.00000  Uiso   1.00
H226   H     0.16970   0.00300   0.94330   0.00000  Uiso   1.00
H227   H     0.16750   0.92010   0.31730   0.00000  Uiso   1.00
S228   S     0.10605   0.00178   0.54570   0.00000  Uiso   1.00
O229   O     0.10667   0.01300   0.29850   0.00000  Uiso   1.00
C230   C     0.05820   0.95010   0.60280   0.00000  Uiso   1.00
C231   C     0.04460   0.90970   0.43010   0.00000  Uiso   1.00
C232   C     0.03380   0.95070   0.81520   0.00000  Uiso   1.00
H233   H     0.06250   0.90810   0.28650   0.00000  Uiso   1.00
C234   C     0.00520   0.87250   0.46990   0.00000  Uiso   1.00
C235   C     0.99510   0.91160   0.85340   0.00000  Uiso   1.00
H236   H     0.04350   0.97770   0.93370   0.00000  Uiso   1.00
C237   C     0.98070   0.87300   0.68120   0.00000  Uiso   1.00
H238   H     0.99480   0.84610   0.35060   0.00000  Uiso   1.00
H239   H     0.97840   0.91130   0.00010   0.00000  Uiso   1.00
C240   C     0.93640   0.83310   0.71820   0.00000  Uiso   1.00
Eu241  Eu    0.14335   0.25000   0.23515   0.00000  Uiso   1.00
O242   O     0.16090   0.25000   0.81620   0.00000  Uiso   1.00
C243   C     0.20350   0.25000   0.72750   0.00000  Uiso   1.00
O244   O     0.21060   0.25000   0.50960   0.00000  Uiso   1.00
Eu245  Eu    0.35665   0.75000   0.73515   0.00000  Uiso   1.00
O246   O     0.33910   0.75000   0.31620   0.00000  Uiso   1.00
C247   C     0.29650   0.75000   0.22750   0.00000  Uiso   1.00
O248   O     0.28940   0.75000   0.00960   0.00000  Uiso   1.00
Eu249  Eu    0.85665   0.75000   0.76485   0.00000  Uiso   1.00
O250   O     0.83910   0.75000   0.18380   0.00000  Uiso   1.00
C251   C     0.79650   0.75000   0.27250   0.00000  Uiso   1.00
O252   O     0.78940   0.75000   0.49040   0.00000  Uiso   1.00
Eu253  Eu    0.64335   0.25000   0.26485   0.00000  Uiso   1.00
O254   O     0.66090   0.25000   0.68380   0.00000  Uiso   1.00
C255   C     0.70350   0.25000   0.77250   0.00000  Uiso   1.00
O256   O     0.71060   0.25000   0.99040   0.00000  Uiso   1.00
loop_
_geom_bond_atom_site_label_1
_geom_bond_atom_site_label_2
_geom_bond_distance
_geom_bond_site_symmetry_2
_ccdc_geom_bond_type
O1     Eu241   2.357   .     S
O1     Na3     2.664   1_554 S
O1     C7      1.286   .     S
O2     Eu241   2.543   .     S
O2     Na183   2.355   1_554 S
O2     C120    1.257   .     S
Na3    O1      2.664   1_556 S
Na3    O242    2.571   .     S
Na3    O4      2.378   .     S
Na3    O5      2.276   .     S
Na3    O6      2.325   .     S
Na3    O182    2.355   1_556 S
O4     Eu241   2.444   .     S
O4     C180    1.258   .     S
O5     C7      1.232   .     S
O6     S48     1.440   .     S
C7     C8      1.511   .     S
C8     C9      1.393   .     S
C8     C10     1.375   .     S
C9     C11     1.378   .     S
C9     H12     0.949   .     S
C10    C13     1.384   1_554 S
C10    H14     0.949   1_554 S
C11    C15     1.378   .     S
C11    H16     0.949   .     S
C13    C10     1.384   1_556 S
C13    H17     0.950   .     S
C13    C15     1.375   1_556 S
H14    C10     0.949   1_556 S
C15    S18     1.767   .     S
C15    C13     1.375   1_554 S
S18    O19     1.435   1_554 S
S18    C20     1.766   .     S
S18    O36     1.440   .     S
O19    S18     1.435   1_556 S
C20    C21     1.396   1_554 S
C20    C22     1.377   .     S
C21    C20     1.396   1_556 S
C21    H23     0.950   .     S
C21    C24     1.369   .     S
C22    C25     1.380   .     S
C22    H26     0.950   .     S
C24    C27     1.373   1_556 S
C24    H28     0.950   .     S
C25    H29     0.949   .     S
C25    C27     1.374   .     S
C27    C24     1.373   1_554 S
C27    C30     1.505   .     S
C30    O92     1.257   .     S
C30    O154    1.258   .     S
O31    Eu245   2.357   .     S
O31    Na33    2.664   .     S
O31    C37     1.286   .     S
O32    Eu245   2.543   .     S
O32    Na213   2.355   .     S
O32    C90     1.257   .     S
Na33   O246    2.571   .     S
Na33   O34     2.378   1_554 S
Na33   O35     2.276   .     S
Na33   O36     2.325   .     S
Na33   O212    2.355   .     S
O34    Na33    2.378   1_556 S
O34    Eu245   2.444   .     S
O34    C150    1.258   .     S
O35    C37     1.232   1_554 S
C37    O35     1.232   1_556 S
C37    C38     1.511   .     S
C38    C39     1.393   .     S
C38    C40     1.375   .     S
C39    C41     1.378   .     S
C39    H42     0.949   1_556 S
C40    C43     1.384   .     S
C40    H44     0.949   .     S
C41    C45     1.378   .     S
C41    H46     0.949   .     S
H42    C39     0.949   1_554 S
C43    H47     0.950   .     S
C43    C45     1.375   .     S
C45    S48     1.767   .     S
S48    O49     1.435   .     S
S48    C50     1.766   .     S
C50    C51     1.396   .     S
C50    C52     1.377   .     S
C51    H53     0.950   .     S
C51    C54     1.369   .     S
C52    C55     1.380   1_455 S
C52    H56     0.950   .     S
C54    C57     1.373   1_455 S
C54    H58     0.950   1_455 S
C55    C52     1.380   1_655 S
C55    H59     0.949   1_556 S
C55    C57     1.374   .     S
C57    C54     1.373   1_655 S
C57    C60     1.505   .     S
H58    C54     0.950   1_655 S
H59    C55     0.949   1_554 S
C60    O62     1.257   .     S
C60    O124    1.258   .     S
O61    Eu249   2.357   .     S
O61    Na63    2.664   1_556 S
O61    C67     1.286   .     S
O62    Eu249   2.543   .     S
O62    Na123   2.355   1_556 S
Na63   O61     2.664   1_554 S
Na63   O250    2.571   .     S
Na63   O64     2.378   .     S
Na63   O65     2.276   .     S
Na63   O66     2.325   .     S
Na63   O122    2.355   1_554 S
O64    Eu249   2.444   .     S
O64    C240    1.258   .     S
O65    C67     1.232   .     S
O66    S108    1.440   .     S
C67    C68     1.511   .     S
C68    C69     1.393   .     S
C68    C70     1.375   .     S
C69    C71     1.378   .     S
C69    H72     0.949   .     S
C70    C73     1.384   1_556 S
C70    H74     0.949   1_556 S
C71    C75     1.378   .     S
C71    H76     0.949   1_565 S
C73    C70     1.384   1_554 S
C73    H77     0.950   .     S
C73    C75     1.375   1_554 S
H74    C70     0.949   1_554 S
C75    S78     1.767   1_565 S
C75    C73     1.375   1_556 S
H76    C71     0.949   1_545 S
S78    C75     1.767   1_545 S
S78    O79     1.435   1_556 S
S78    C80     1.766   1_545 S
S78    O96     1.440   .     S
O79    S78     1.435   1_554 S
C80    S78     1.766   1_565 S
C80    C81     1.396   1_556 S
C80    C82     1.377   .     S
C81    C80     1.396   1_554 S
C81    H83     0.950   .     S
C81    C84     1.369   .     S
C82    C85     1.380   .     S
C82    H86     0.950   .     S
C84    C87     1.373   1_554 S
C84    H88     0.950   .     S
C85    H89     0.949   .     S
C85    C87     1.374   .     S
C87    C84     1.373   1_556 S
C87    C90     1.505   .     S
C90    O214    1.258   .     S
O91    Eu253   2.357   .     S
O91    Na93    2.664   .     S
O91    C97     1.286   .     S
O92    Eu253   2.543   .     S
O92    Na153   2.355   .     S
Na93   O254    2.571   .     S
Na93   O94     2.378   1_556 S
Na93   O95     2.276   .     S
Na93   O96     2.325   .     S
Na93   O152    2.355   .     S
O94    Na93    2.378   1_554 S
O94    Eu253   2.444   .     S
O94    C210    1.258   .     S
O95    C97     1.232   1_556 S
C97    O95     1.232   1_554 S
C97    C98     1.511   .     S
C98    C99     1.393   .     S
C98    C100    1.375   .     S
C99    C101    1.378   .     S
C99    H102    0.949   1_554 S
C100   C103    1.384   .     S
C100   H104    0.949   .     S
C101   C105    1.378   .     S
C101   H106    0.949   1_545 S
H102   C99     0.949   1_556 S
C103   H107    0.950   .     S
C103   C105    1.375   .     S
C105   S108    1.767   1_545 S
H106   C101    0.949   1_565 S
S108   C105    1.767   1_565 S
S108   O109    1.435   .     S
S108   C110    1.766   1_565 S
C110   S108    1.766   1_545 S
C110   C111    1.396   .     S
C110   C112    1.377   .     S
C111   H113    0.950   .     S
C111   C114    1.369   .     S
C112   C115    1.380   1_655 S
C112   H116    0.950   .     S
C114   C117    1.373   1_655 S
C114   H118    0.950   1_655 S
C115   C112    1.380   1_455 S
C115   H119    0.949   1_554 S
C115   C117    1.374   .     S
C117   C114    1.373   1_455 S
C117   C120    1.505   .     S
H118   C114    0.950   1_455 S
H119   C115    0.949   1_556 S
C120   O184    1.258   .     S
O121   Eu249   2.357   .     S
O121   Na123   2.664   1_556 S
O121   C127    1.286   .     S
O122   Eu249   2.543   .     S
O122   Na63    2.355   1_556 S
O122   C240    1.257   .     S
Na123  O121    2.664   1_554 S
Na123  O250    2.571   .     S
Na123  O124    2.378   .     S
Na123  O125    2.276   .     S
Na123  O126    2.325   .     S
Na123  O62     2.355   1_554 S
O124   Eu249   2.444   .     S
O125   C127    1.232   .     S
O126   S168    1.440   .     S
C127   C128    1.511   .     S
C128   C129    1.393   .     S
C128   C130    1.375   .     S
C129   C131    1.378   .     S
C129   H132    0.949   .     S
C130   C133    1.384   1_556 S
C130   H134    0.949   1_556 S
C131   C135    1.378   .     S
C131   H136    0.949   .     S
C133   C130    1.384   1_554 S
C133   H137    0.950   .     S
C133   C135    1.375   1_554 S
H134   C130    0.949   1_554 S
C135   S138    1.767   .     S
C135   C133    1.375   1_556 S
S138   O139    1.435   1_556 S
S138   C140    1.766   .     S
S138   O156    1.440   .     S
O139   S138    1.435   1_554 S
C140   C141    1.396   1_556 S
C140   C142    1.377   .     S
C141   C140    1.396   1_554 S
C141   H143    0.950   .     S
C141   C144    1.369   .     S
C142   C145    1.380   .     S
C142   H146    0.950   .     S
C144   C147    1.373   1_554 S
C144   H148    0.950   .     S
C145   H149    0.949   .     S
C145   C147    1.374   .     S
C147   C144    1.373   1_556 S
C147   C150    1.505   .     S
C150   O212    1.257   .     S
O151   Eu253   2.357   .     S
O151   Na153   2.664   .     S
O151   C157    1.286   .     S
O152   Eu253   2.543   .     S
O152   C210    1.257   .     S
Na153  O254    2.571   .     S
Na153  O154    2.378   1_556 S
Na153  O155    2.276   .     S
Na153  O156    2.325   .     S
O154   Na153   2.378   1_554 S
O154   Eu253   2.444   .     S
O155   C157    1.232   1_556 S
C157   O155    1.232   1_554 S
C157   C158    1.511   .     S
C158   C159    1.393   .     S
C158   C160    1.375   .     S
C159   C161    1.378   .     S
C159   H162    0.949   1_554 S
C160   C163    1.384   .     S
C160   H164    0.949   .     S
C161   C165    1.378   .     S
C161   H166    0.949   .     S
H162   C159    0.949   1_556 S
C163   H167    0.950   .     S
C163   C165    1.375   .     S
C165   S168    1.767   .     S
S168   O169    1.435   .     S
S168   C170    1.766   .     S
C170   C171    1.396   .     S
C170   C172    1.377   .     S
C171   H173    0.950   .     S
C171   C174    1.369   .     S
C172   C175    1.380   1_655 S
C172   H176    0.950   .     S
C174   C177    1.373   1_655 S
C174   H178    0.950   1_655 S
C175   C172    1.380   1_455 S
C175   H179    0.949   1_554 S
C175   C177    1.374   .     S
C177   C174    1.373   1_455 S
C177   C180    1.505   .     S
H178   C174    0.950   1_455 S
H179   C175    0.949   1_556 S
C180   O182    1.257   .     S
O181   Eu241   2.357   .     S
O181   Na183   2.664   1_554 S
O181   C187    1.286   .     S
O182   Eu241   2.543   .     S
O182   Na3     2.355   1_554 S
Na183  O181    2.664   1_556 S
Na183  O242    2.571   .     S
Na183  O184    2.378   .     S
Na183  O185    2.276   .     S
Na183  O186    2.325   .     S
Na183  O2      2.355   1_556 S
O184   Eu241   2.444   .     S
O185   C187    1.232   .     S
O186   S228    1.440   .     S
C187   C188    1.511   .     S
C188   C189    1.393   .     S
C188   C190    1.375   .     S
C189   C191    1.378   .     S
C189   H192    0.949   .     S
C190   C193    1.384   1_554 S
C190   H194    0.949   1_554 S
C191   C195    1.378   .     S
C191   H196    0.949   1_545 S
C193   C190    1.384   1_556 S
C193   H197    0.950   .     S
C193   C195    1.375   1_556 S
H194   C190    0.949   1_556 S
C195   S198    1.767   1_545 S
C195   C193    1.375   1_554 S
H196   C191    0.949   1_565 S
S198   C195    1.767   1_565 S
S198   O199    1.435   1_554 S
S198   C200    1.766   1_565 S
S198   O216    1.440   .     S
O199   S198    1.435   1_556 S
C200   S198    1.766   1_545 S
C200   C201    1.396   1_554 S
C200   C202    1.377   .     S
C201   C200    1.396   1_556 S
C201   H203    0.950   .     S
C201   C204    1.369   .     S
C202   C205    1.380   .     S
C202   H206    0.950   .     S
C204   C207    1.373   1_556 S
C204   H208    0.950   .     S
C205   H209    0.949   .     S
C205   C207    1.374   .     S
C207   C204    1.373   1_554 S
C207   C210    1.505   .     S
O211   Eu245   2.357   .     S
O211   Na213   2.664   .     S
O211   C217    1.286   .     S
O212   Eu245   2.543   .     S
Na213  O246    2.571   .     S
Na213  O214    2.378   1_554 S
Na213  O215    2.276   .     S
Na213  O216    2.325   .     S
O214   Na213   2.378   1_556 S
O214   Eu245   2.444   .     S
O215   C217    1.232   1_554 S
C217   O215    1.232   1_556 S
C217   C218    1.511   .     S
C218   C219    1.393   .     S
C218   C220    1.375   .     S
C219   C221    1.378   .     S
C219   H222    0.949   1_556 S
C220   C223    1.384   .     S
C220   H224    0.949   .     S
C221   C225    1.378   .     S
C221   H226    0.949   1_565 S
H222   C219    0.949   1_554 S
C223   H227    0.950   .     S
C223   C225    1.375   .     S
C225   S228    1.767   1_565 S
H226   C221    0.949   1_545 S
S228   C225    1.767   1_545 S
S228   O229    1.435   .     S
S228   C230    1.766   1_545 S
C230   S228    1.766   1_565 S
C230   C231    1.396   .     S
C230   C232    1.377   .     S
C231   H233    0.950   .     S
C231   C234    1.369   .     S
C232   C235    1.380   1_455 S
C232   H236    0.950   .     S
C234   C237    1.373   1_455 S
C234   H238    0.950   1_455 S
C235   C232    1.380   1_655 S
C235   H239    0.949   1_556 S
C235   C237    1.374   .     S
C237   C234    1.373   1_655 S
C237   C240    1.505   .     S
H238   C234    0.950   1_655 S
H239   C235    0.949   1_554 S
Eu241  O242    2.439   1_554 S
Eu241  O244    2.384   .     S
O242   Eu241   2.439   1_556 S
O242   C243    1.245   .     S
C243   O244    1.259   .     S
Eu245  O246    2.439   .     S
Eu245  O248    2.384   1_556 S
O246   C247    1.245   .     S
C247   O248    1.259   .     S
O248   Eu245   2.384   1_554 S
Eu249  O250    2.439   1_556 S
Eu249  O252    2.384   .     S
O250   Eu249   2.439   1_554 S
O250   C251    1.245   .     S
C251   O252    1.259   .     S
Eu253  O254    2.439   .     S
Eu253  O256    2.384   1_554 S
O254   C255    1.245   .     S
C255   O256    1.259   .     S
O256   Eu253   2.384   1_556 S
