data_KOKKOL_directopt
_audit_creation_date              2024-06-11
_audit_creation_method            'Materials Studio'
_symmetry_space_group_name_H-M    'P1'
_symmetry_Int_Tables_number       1
_symmetry_cell_setting            triclinic
loop_
_symmetry_equiv_pos_as_xyz
  x,y,z
_cell_length_a                    11.1075
_cell_length_b                    11.1075
_cell_length_c                    19.0925
_cell_angle_alpha                 90.0000
_cell_angle_beta                  90.0000
_cell_angle_gamma                 120.0000
loop_
_atom_site_label
_atom_site_type_symbol
_atom_site_fract_x
_atom_site_fract_y
_atom_site_fract_z
_atom_site_U_iso_or_equiv
_atom_site_adp_type
_atom_site_occupancy
O1     O     0.64217   0.53366   0.84247   0.00000  Uiso   1.00
C2     C     0.38665   0.47714   0.94665   0.00000  Uiso   1.00
N3     N     0.32674   0.51098   0.88878   0.00000  Uiso   1.00
O4     O     0.53711   0.65202   0.16812   0.00000  Uiso   1.00
C5     C     0.35826   0.50361   0.01559   0.00000  Uiso   1.00
H6     H     0.29053   0.54679   0.02216   0.00000  Uiso   1.00
O7     O     0.35223   0.43776   0.20011   0.00000  Uiso   1.00
C8     C     0.51360   0.43351   0.06454   0.00000  Uiso   1.00
H9     H     0.56787   0.42082   0.10851   0.00000  Uiso   1.00
O10    O     0.43037   0.34251   0.81107   0.00000  Uiso   1.00
C11    C     0.54131   0.40564   0.99658   0.00000  Uiso   1.00
H12    H     0.61702   0.37250   0.99103   0.00000  Uiso   1.00
C13    C     0.52979   0.40560   0.86410   0.00000  Uiso   1.00
C14    C     0.47814   0.42455   0.93618   0.00000  Uiso   1.00
C15    C     0.40917   0.53790   0.14738   0.00000  Uiso   1.00
C16    C     0.42263   0.48417   0.07533   0.00000  Uiso   1.00
H17    H     0.35825   0.51209   0.83726   0.00000  Uiso   1.00
H18    H     0.25470   0.54373   0.89743   0.00000  Uiso   1.00
H19    H     0.56274   0.33417   0.87452   0.00000  Uiso   1.00
H20    H     0.33746   0.57012   0.13907   0.00000  Uiso   1.00
O21    O     0.46121   0.10671   0.83921   0.00000  Uiso   1.00
C22    C     0.61937   0.96765   0.96147   0.00000  Uiso   1.00
N23    N     0.69626   0.92501   0.91782   0.00000  Uiso   1.00
O24    O     0.34529   0.88358   0.17123   0.00000  Uiso   1.00
C25    C     0.59782   0.92437   0.03274   0.00000  Uiso   1.00
H26    H     0.63703   0.85828   0.05131   0.00000  Uiso   1.00
O27    O     0.56140   0.91402   0.20076   0.00000  Uiso   1.00
C28    C     0.46367   0.03689   0.05242   0.00000  Uiso   1.00
H29    H     0.40017   0.06325   0.08480   0.00000  Uiso   1.00
O30    O     0.65271   0.08635   0.81083   0.00000  Uiso   1.00
C31    C     0.48259   0.07848   0.98253   0.00000  Uiso   1.00
H32    H     0.43364   0.13624   0.96509   0.00000  Uiso   1.00
C33    C     0.58732   0.12044   0.86342   0.00000  Uiso   1.00
C34    C     0.56036   0.04671   0.93509   0.00000  Uiso   1.00
C35    C     0.46207   0.87619   0.14782   0.00000  Uiso   1.00
C36    C     0.51799   0.95633   0.07886   0.00000  Uiso   1.00
H37    H     0.68249   0.91450   0.86382   0.00000  Uiso   1.00
H38    H     0.75357   0.88374   0.94027   0.00000  Uiso   1.00
H39    H     0.65804   0.22371   0.87791   0.00000  Uiso   1.00
H40    H     0.43219   0.77452   0.13170   0.00000  Uiso   1.00
O41    O     0.88601   0.35137   0.84364   0.00000  Uiso   1.00
C42    C     0.05559   0.64398   0.95711   0.00000  Uiso   1.00
N43    N     0.13063   0.74887   0.90546   0.00000  Uiso   1.00
O44    O     0.11285   0.46171   0.17069   0.00000  Uiso   1.00
C45    C     0.10295   0.67157   0.02750   0.00000  Uiso   1.00
H46    H     0.19338   0.77092   0.03968   0.00000  Uiso   1.00
O47    O     0.08346   0.64561   0.20477   0.00000  Uiso   1.00
C48    C     0.93015   0.44057   0.06261   0.00000  Uiso   1.00
H49    H     0.88268   0.35838   0.10120   0.00000  Uiso   1.00
O50    O     0.90863   0.56453   0.81400   0.00000  Uiso   1.00
C51    C     0.88185   0.41223   0.99347   0.00000  Uiso   1.00
H52    H     0.79644   0.30931   0.98212   0.00000  Uiso   1.00
C53    C     0.87188   0.46420   0.86659   0.00000  Uiso   1.00
C54    C     0.94180   0.51162   0.93908   0.00000  Uiso   1.00
C55    C     0.12137   0.58787   0.15015   0.00000  Uiso   1.00
C56    C     0.04319   0.56981   0.08095   0.00000  Uiso   1.00
H57    H     0.13338   0.72434   0.85306   0.00000  Uiso   1.00
H58    H     0.20122   0.85056   0.92084   0.00000  Uiso   1.00
H59    H     0.76808   0.43206   0.87916   0.00000  Uiso   1.00
H60    H     0.22404   0.66089   0.13679   0.00000  Uiso   1.00
O61    O     0.30427   0.44083   0.34015   0.00000  Uiso   1.00
C62    C     0.59417   0.61547   0.47293   0.00000  Uiso   1.00
N63    N     0.69879   0.74310   0.44270   0.00000  Uiso   1.00
O64    O     0.43816   0.29521   0.67116   0.00000  Uiso   1.00
C65    C     0.60954   0.58937   0.54420   0.00000  Uiso   1.00
H66    H     0.69984   0.66497   0.57311   0.00000  Uiso   1.00
O67    O     0.58884   0.52430   0.70210   0.00000  Uiso   1.00
C68    C     0.40325   0.36505   0.53688   0.00000  Uiso   1.00
H69    H     0.32957   0.26476   0.55857   0.00000  Uiso   1.00
O70    O     0.53102   0.59500   0.30806   0.00000  Uiso   1.00
C71    C     0.38725   0.38900   0.46634   0.00000  Uiso   1.00
H72    H     0.29943   0.30725   0.43873   0.00000  Uiso   1.00
C73    C     0.43369   0.55179   0.36249   0.00000  Uiso   1.00
C74    C     0.47898   0.51553   0.43266   0.00000  Uiso   1.00
C75    C     0.54818   0.42466   0.64891   0.00000  Uiso   1.00
C76    C     0.51367   0.46523   0.57776   0.00000  Uiso   1.00
H77    H     0.70611   0.75976   0.38899   0.00000  Uiso   1.00
H78    H     0.77843   0.81838   0.47365   0.00000  Uiso   1.00
H79    H     0.42331   0.63758   0.37748   0.00000  Uiso   1.00
H80    H     0.63618   0.41810   0.63546   0.00000  Uiso   1.00
O81    O     0.56139   0.85988   0.34013   0.00000  Uiso   1.00
C82    C     0.38840   0.97718   0.47297   0.00000  Uiso   1.00
N83    N     0.26050   0.95364   0.44272   0.00000  Uiso   1.00
O84    O     0.70791   0.14496   0.67177   0.00000  Uiso   1.00
C85    C     0.41498   0.02025   0.54388   0.00000  Uiso   1.00
H86    H     0.33955   0.03564   0.57253   0.00000  Uiso   1.00
O87    O     0.47750   0.06592   0.70038   0.00000  Uiso   1.00
C88    C     0.63939   0.03812   0.53699   0.00000  Uiso   1.00
H89    H     0.73971   0.06534   0.55886   0.00000  Uiso   1.00
O90    O     0.40676   0.93270   0.30962   0.00000  Uiso   1.00
C91    C     0.61475   0.99593   0.46674   0.00000  Uiso   1.00
H92    H     0.69598   0.98871   0.43926   0.00000  Uiso   1.00
C93    C     0.45093   0.87841   0.36339   0.00000  Uiso   1.00
C94    C     0.48802   0.96068   0.43314   0.00000  Uiso   1.00
C95    C     0.57893   0.12525   0.64818   0.00000  Uiso   1.00
C96    C     0.53936   0.04941   0.57740   0.00000  Uiso   1.00
H97    H     0.24390   0.94553   0.38896   0.00000  Uiso   1.00
H98    H     0.18497   0.95730   0.47377   0.00000  Uiso   1.00
H99    H     0.36554   0.78208   0.37894   0.00000  Uiso   1.00
H100   H     0.58562   0.21975   0.63407   0.00000  Uiso   1.00
O101   O     0.14374   0.69821   0.34360   0.00000  Uiso   1.00
C102   C     0.02615   0.40892   0.47646   0.00000  Uiso   1.00
N103   N     0.05089   0.30486   0.44694   0.00000  Uiso   1.00
O104   O     0.85823   0.56449   0.67404   0.00000  Uiso   1.00
C105   C     0.98318   0.39367   0.54745   0.00000  Uiso   1.00
H106   H     0.96834   0.30365   0.57668   0.00000  Uiso   1.00
O107   O     0.93565   0.41275   0.70433   0.00000  Uiso   1.00
C108   C     0.96443   0.59948   0.53917   0.00000  Uiso   1.00
H109   H     0.93696   0.67281   0.56046   0.00000  Uiso   1.00
O110   O     0.06869   0.47080   0.31138   0.00000  Uiso   1.00
C111   C     0.00593   0.61540   0.46883   0.00000  Uiso   1.00
H112   H     0.01227   0.70302   0.44088   0.00000  Uiso   1.00
C113   C     0.12411   0.56828   0.36584   0.00000  Uiso   1.00
C114   C     0.04177   0.52375   0.43580   0.00000  Uiso   1.00
C115   C     0.87801   0.45493   0.65126   0.00000  Uiso   1.00
C116   C     0.95393   0.48945   0.58039   0.00000  Uiso   1.00
H117   H     0.06389   0.29881   0.39345   0.00000  Uiso   1.00
H118   H     0.04583   0.22522   0.47816   0.00000  Uiso   1.00
H119   H     0.22008   0.57773   0.38130   0.00000  Uiso   1.00
H120   H     0.78347   0.36766   0.63757   0.00000  Uiso   1.00
Fe121  Fe    0.74592   0.53752   0.75818   0.00000  Uiso   1.00
Fe122  Fe    0.46108   0.20843   0.75553   0.00000  Uiso   1.00
Fe123  Fe    0.78997   0.25250   0.75765   0.00000  Uiso   1.00
Fe124  Fe    0.21465   0.46132   0.25546   0.00000  Uiso   1.00
Fe125  Fe    0.53901   0.75170   0.25412   0.00000  Uiso   1.00
Fe126  Fe    0.24839   0.78481   0.25721   0.00000  Uiso   1.00
O127   O     0.66558   0.33279   0.75744   0.00000  Uiso   1.00
O128   O     0.33400   0.66593   0.25632   0.00000  Uiso   1.00
O129   O     0.16572   0.90103   0.25811   0.00000  Uiso   1.00
O130   O     0.09922   0.26192   0.25317   0.00000  Uiso   1.00
O131   O     0.73838   0.83605   0.25047   0.00000  Uiso   1.00
O132   O     0.91000   0.17424   0.75744   0.00000  Uiso   1.00
O133   O     0.26283   0.08841   0.75339   0.00000  Uiso   1.00
O134   O     0.82482   0.73589   0.75869   0.00000  Uiso   1.00
H135   H     0.89694   0.12776   0.80334   0.00000  Uiso   1.00
H136   H     1.00644   0.25354   0.75926   0.00000  Uiso   1.00
H137   H     0.24558  -0.00811   0.75465   0.00000  Uiso   1.00
H138   H     0.22775   0.10012   0.79910   0.00000  Uiso   1.00
H139   H     0.86643   0.76786   0.80569   0.00000  Uiso   1.00
H140   H     0.74579   0.75346   0.75783   0.00000  Uiso   1.00
H141   H     0.76196   0.76442   0.26429   0.00000  Uiso   1.00
H142   H     0.77855   0.90782   0.28750   0.00000  Uiso   1.00
H143   H     0.13262   0.22256   0.28978   0.00000  Uiso   1.00
H144   H     0.00484   0.23890   0.26832   0.00000  Uiso   1.00
H145   H     0.07300   0.84574   0.28001   0.00000  Uiso   1.00
H146   H     0.14479   0.91066   0.20868   0.00000  Uiso   1.00
loop_
_geom_bond_atom_site_label_1
_geom_bond_atom_site_label_2
_geom_bond_distance
_geom_bond_site_symmetry_2
_ccdc_geom_bond_type
O1     C13     1.406   .     S
O1     Fe121   1.967   .     S
C2     N3      1.434   .     S
C2     C5      1.418   1_556 S
C2     C14     1.417   .     D
N3     H17     1.042   .     S
N3     H18     1.044   .     S
O4     C15     1.408   .     S
O4     Fe125   1.975   .     S
C5     C2      1.418   1_554 S
C5     H6      1.083   .     S
C5     C16     1.419   .     D
O7     C15     1.395   .     S
O7     Fe124   1.980   .     S
C8     H9      1.083   .     S
C8     C11     1.403   1_554 D
C8     C16     1.396   .     S
O10    C13     1.401   .     S
O10    Fe122   1.992   .     S
C11    C8      1.403   1_556 D
C11    H12     1.079   .     S
C11    C14     1.419   .     S
C13    C14     1.545   .     S
C13    H19     1.046   .     S
C15    C16     1.536   .     S
C15    H20     1.036   .     S
O21    C33     1.409   .     S
O21    Fe122   1.957   .     S
C22    N23     1.433   .     S
C22    C25     1.423   1_556 S
C22    C34     1.425   1_565 D
N23    H37     1.040   .     S
N23    H38     1.044   .     S
O24    C35     1.413   .     S
O24    Fe126   1.969   .     S
C25    C22     1.423   1_554 S
C25    H26     1.084   .     S
C25    C36     1.415   .     D
O27    C35     1.397   .     S
O27    Fe125   1.975   .     S
C28    H29     1.082   .     S
C28    C31     1.393   1_554 D
C28    C36     1.400   1_545 S
O30    C33     1.398   .     S
O30    Fe123   1.987   .     S
C31    C28     1.393   1_556 D
C31    H32     1.080   .     S
C31    C34     1.413   .     S
C33    C34     1.545   .     S
C33    H39     1.053   .     S
C34    C22     1.425   1_545 D
C35    C36     1.536   .     S
C35    H40     1.051   .     S
C36    C28     1.400   1_565 S
O41    C53     1.409   .     S
O41    Fe123   1.967   .     S
C42    N43     1.433   .     S
C42    C45     1.420   1_556 S
C42    C54     1.421   1_455 D
N43    H57     1.041   .     S
N43    H58     1.045   .     S
O44    C55     1.412   .     S
O44    Fe124   1.976   .     S
C45    C42     1.420   1_554 S
C45    H46     1.083   .     S
C45    C56     1.418   .     D
O47    C55     1.395   .     S
O47    Fe126   1.979   .     S
C48    H49     1.083   .     S
C48    C51     1.400   1_554 D
C48    C56     1.399   1_655 S
O50    C53     1.401   .     S
O50    Fe121   1.987   .     S
C51    C48     1.400   1_556 D
C51    H52     1.081   .     S
C51    C54     1.416   .     S
C53    C54     1.545   .     S
C53    H59     1.050   .     S
C54    C42     1.421   1_655 D
C55    C56     1.538   .     S
C55    H60     1.048   .     S
C56    C48     1.399   1_455 S
O61    C73     1.413   .     S
O61    Fe124   1.971   .     S
C62    N63     1.430   .     S
C62    C65     1.419   .     D
C62    C74     1.428   .     S
N63    H77     1.038   .     S
N63    H78     1.045   .     S
O64    C75     1.409   .     S
O64    Fe122   1.958   .     S
C65    H66     1.083   .     S
C65    C76     1.406   .     S
O67    C75     1.400   .     S
O67    Fe121   1.989   .     S
C68    H69     1.082   .     S
C68    C71     1.401   .     S
C68    C76     1.410   .     D
O70    C73     1.400   .     S
O70    Fe125   1.986   .     S
C71    H72     1.081   .     S
C71    C74     1.412   .     D
C73    C74     1.553   .     S
C73    H79     1.055   .     S
C75    C76     1.539   .     S
C75    H80     1.048   .     S
O81    C93     1.413   .     S
O81    Fe125   1.976   .     S
C82    N83     1.431   .     S
C82    C85     1.417   1_565 S
C82    C94     1.428   .     D
N83    H97     1.039   .     S
N83    H98     1.045   .     S
O84    C95     1.411   .     S
O84    Fe123   1.964   .     S
C85    C82     1.417   1_545 S
C85    H86     1.083   .     S
C85    C96     1.406   .     D
O87    C95     1.398   .     S
O87    Fe122   1.984   .     S
C88    H89     1.082   .     S
C88    C91     1.402   1_545 D
C88    C96     1.409   .     S
O90    C93     1.398   .     S
O90    Fe126   1.976   .     S
C91    C88     1.402   1_565 D
C91    H92     1.081   .     S
C91    C94     1.412   .     S
C93    C94     1.550   .     S
C93    H99     1.057   .     S
C95    C96     1.536   .     S
C95    H100    1.050   .     S
O101   C113    1.413   .     S
O101   Fe126   1.970   .     S
C102   N103    1.431   .     S
C102   C105    1.419   1_455 D
C102   C114    1.428   .     S
N103   H117    1.038   .     S
N103   H118    1.045   .     S
O104   C115    1.409   .     S
O104   Fe121   1.963   .     S
C105   C102    1.419   1_655 D
C105   H106    1.083   .     S
C105   C116    1.407   .     S
O107   C115    1.398   .     S
O107   Fe123   1.986   .     S
C108   H109    1.082   .     S
C108   C111    1.402   1_655 S
C108   C116    1.409   .     D
O110   C113    1.402   .     S
O110   Fe124   1.988   .     S
C111   C108    1.402   1_455 S
C111   H112    1.081   .     S
C111   C114    1.414   .     D
C113   C114    1.553   .     S
C113   H119    1.059   .     S
C115   C116    1.538   .     S
C115   H120    1.045   .     S
Fe121  O127    1.985   .     S
Fe121  O134    1.921   .     S
Fe122  O127    1.983   .     S
Fe122  O133    1.922   .     S
Fe123  O127    1.984   .     S
Fe123  O132    1.921   .     S
Fe124  O128    1.977   .     S
Fe124  O130    1.926   .     S
Fe125  O128    1.981   .     S
Fe125  O131    1.927   .     S
Fe126  O128    1.976   .     S
Fe126  O129    1.922   .     S
O129   H145    0.990   .     S
O129   H146    0.990   .     S
O130   H143    0.990   .     S
O130   H144    0.990   .     S
O131   H141    0.990   .     S
O131   H142    0.989   .     S
O132   H135    0.990   .     S
O132   H136    0.990   .     S
O133   H137    0.991   .     S
O133   H138    0.991   .     S
O134   H139    0.990   .     S
O134   H140    0.990   .     S
