data_KUDQIM_FSR
_audit_creation_date              2024-06-11
_audit_creation_method            'Materials Studio'
_symmetry_space_group_name_H-M    'P1'
_symmetry_Int_Tables_number       1
_symmetry_cell_setting            triclinic
loop_
_symmetry_equiv_pos_as_xyz
  x,y,z
_cell_length_a                    7.3370
_cell_length_b                    8.4080
_cell_length_c                    9.5840
_cell_angle_alpha                 106.7000
_cell_angle_beta                  98.2300
_cell_angle_gamma                 107.3600
loop_
_atom_site_label
_atom_site_type_symbol
_atom_site_fract_x
_atom_site_fract_y
_atom_site_fract_z
_atom_site_U_iso_or_equiv
_atom_site_adp_type
_atom_site_occupancy
C1     C     0.29790   0.54720   0.14750   0.00000  Uiso   1.00
C2     C     0.21670   0.72700   0.02780   0.00000  Uiso   1.00
C3     C     0.13100   0.79300   0.14120   0.00000  Uiso   1.00
H4     H     0.07040   0.87500   0.13810   0.00000  Uiso   1.00
C5     C     0.14190   0.72860   0.25950   0.00000  Uiso   1.00
H6     H     0.08680   0.77000   0.33750   0.00000  Uiso   1.00
C7     C     0.29690   0.91210   0.67140   0.00000  Uiso   1.00
H8     H     0.32530   0.95400   0.59420   0.00000  Uiso   1.00
C9     C     0.27910   1.02940   0.79990   0.00000  Uiso   1.00
H10    H     0.28930   1.14440   0.80650   0.00000  Uiso   1.00
C11    C     0.24600   0.97040   0.91700   0.00000  Uiso   1.00
H12    H     0.23360   1.04510   0.00490   0.00000  Uiso   1.00
C13    C     0.23130   0.79640   0.90190   0.00000  Uiso   1.00
C14    C     0.24060   0.68800   0.76590   0.00000  Uiso   1.00
H15    H     0.22110   0.56960   0.75290   0.00000  Uiso   1.00
Cu16   Cu    0.32550   0.58554   0.46900   0.00000  Uiso   1.00
I17    I     0.73782   0.73758   0.52725   0.00000  Uiso   1.00
N18    N     0.22850   0.60890   0.26690   0.00000  Uiso   1.00
N19    N     0.37480   0.41820   0.14350   0.00000  Uiso   1.00
H20    H     0.37860   0.37740   0.21620   0.00000  Uiso   1.00
H21    H     0.41970   0.37720   0.06840   0.00000  Uiso   1.00
N22    N     0.29950   0.60670   0.02860   0.00000  Uiso   1.00
N23    N     0.27630   0.74480   0.65170   0.00000  Uiso   1.00
C24    C     0.70210   0.45280   0.85250   0.00000  Uiso   1.00
C25    C     0.78330   0.27300   0.97220   0.00000  Uiso   1.00
C26    C     0.86900   0.20700   0.85880   0.00000  Uiso   1.00
H27    H     0.92960   0.12500   0.86190   0.00000  Uiso   1.00
C28    C     0.85810   0.27140   0.74050   0.00000  Uiso   1.00
H29    H     0.91320   0.23000   0.66250   0.00000  Uiso   1.00
C30    C     0.70310   0.08790   0.32860   0.00000  Uiso   1.00
H31    H     0.67470   0.04600   0.40580   0.00000  Uiso   1.00
C32    C     0.72090  -0.02940   0.20010   0.00000  Uiso   1.00
H33    H     0.71070  -0.14440   0.19350   0.00000  Uiso   1.00
C34    C     0.75400   0.02960   0.08300   0.00000  Uiso   1.00
H35    H     0.76640  -0.04510   0.99510   0.00000  Uiso   1.00
C36    C     0.76870   0.20360   0.09810   0.00000  Uiso   1.00
C37    C     0.75940   0.31200   0.23410   0.00000  Uiso   1.00
H38    H     0.77890   0.43040   0.24710   0.00000  Uiso   1.00
Cu39   Cu    0.67450   0.41446   0.53100   0.00000  Uiso   1.00
I40    I     0.26218   0.26242   0.47275   0.00000  Uiso   1.00
N41    N     0.77150   0.39110   0.73310   0.00000  Uiso   1.00
N42    N     0.62520   0.58180   0.85650   0.00000  Uiso   1.00
H43    H     0.62140   0.62260   0.78380   0.00000  Uiso   1.00
H44    H     0.58030   0.62280   0.93160   0.00000  Uiso   1.00
N45    N     0.70050   0.39330   0.97140   0.00000  Uiso   1.00
N46    N     0.72370   0.25520   0.34830   0.00000  Uiso   1.00
loop_
_geom_bond_atom_site_label_1
_geom_bond_atom_site_label_2
_geom_bond_distance
_geom_bond_site_symmetry_2
_ccdc_geom_bond_type
C1     N18     1.350   .     S
C1     N19     1.358   .     S
C1     N22     1.370   .     S
C2     C3      1.393   .     S
C2     C13     1.487   1_554 S
C2     N22     1.327   .     S
C3     H4      0.930   .     S
C3     C5      1.392   .     S
C5     H6      0.930   .     S
C5     N18     1.353   .     S
C7     H8      0.930   .     S
C7     C9      1.390   .     S
C7     N23     1.323   .     S
C9     H10     0.930   .     S
C9     C11     1.375   .     S
C11    H12     0.930   1_556 S
C11    C13     1.397   .     S
H12    C11     0.930   1_554 S
C13    C2      1.487   1_556 S
C13    C14     1.384   .     S
C14    H15     0.930   .     S
C14    N23     1.343   .     S
Cu16   I17     2.810   .     S
Cu16   I40     2.628   .     S
Cu16   N23     2.028   .     S
Cu16   N18     2.050   .     S
I17    Cu39    2.628   .     S
N19    H20     0.861   .     S
N19    H21     0.859   .     S
C24    N41     1.350   .     S
C24    N42     1.358   .     S
C24    N45     1.370   .     S
C25    C26     1.393   .     S
C25    C36     1.487   1_556 S
C25    N45     1.327   .     S
C26    H27     0.930   .     S
C26    C28     1.392   .     S
C28    H29     0.930   .     S
C28    N41     1.353   .     S
C30    H31     0.930   .     S
C30    C32     1.390   .     S
C30    N46     1.323   .     S
C32    H33     0.930   .     S
C32    C34     1.375   .     S
C34    H35     0.930   1_554 S
C34    C36     1.397   .     S
H35    C34     0.930   1_556 S
C36    C25     1.487   1_554 S
C36    C37     1.384   .     S
C37    H38     0.930   .     S
C37    N46     1.343   .     S
Cu39   I40     2.810   .     S
Cu39   N46     2.028   .     S
Cu39   N41     2.050   .     S
N42    H43     0.861   .     S
N42    H44     0.859   .     S
