data_KUXREC_FSR
_audit_creation_date              2024-06-11
_audit_creation_method            'Materials Studio'
_symmetry_space_group_name_H-M    'P1'
_symmetry_Int_Tables_number       1
_symmetry_cell_setting            triclinic
loop_
_symmetry_equiv_pos_as_xyz
  x,y,z
_cell_length_a                    14.4162
_cell_length_b                    14.4162
_cell_length_c                    17.3040
_cell_angle_alpha                 90.0000
_cell_angle_beta                  90.0000
_cell_angle_gamma                 120.0000
loop_
_atom_site_label
_atom_site_type_symbol
_atom_site_fract_x
_atom_site_fract_y
_atom_site_fract_z
_atom_site_U_iso_or_equiv
_atom_site_adp_type
_atom_site_occupancy
O1     O     0.34151   0.50276   0.67074   0.00000  Uiso   1.00
C1     C     0.40028   0.43127   0.53507   0.00000  Uiso   1.00
H2     H     0.32260   0.37696   0.55975   0.00000  Uiso   1.00
O2     O     0.49586   0.83797   0.67069   0.00000  Uiso   1.00
H3     H     0.66621   0.76831   0.76129   0.00000  Uiso   1.00
C2     C     0.56725   0.96789   0.53485   0.00000  Uiso   1.00
H4     H     0.62150   0.94441   0.55949   0.00000  Uiso   1.00
O3     O     0.16026   0.65754   0.67108   0.00000  Uiso   1.00
H5     H     0.23083   0.89749   0.74211   0.00000  Uiso   1.00
C3     C     0.03032   0.59895   0.53508   0.00000  Uiso   1.00
H6     H     0.05352   0.67655   0.55981   0.00000  Uiso   1.00
O4     O     0.65660   0.49625   0.17137   0.00000  Uiso   1.00
C4     C     0.59792   0.56800   0.03567   0.00000  Uiso   1.00
H8     H     0.67518   0.62267   0.06078   0.00000  Uiso   1.00
O5     O     0.50228   0.15959   0.17145   0.00000  Uiso   1.00
H9     H     0.33262   0.23042   0.24059   0.00000  Uiso   1.00
C5     C     0.43099   0.02979   0.03535   0.00000  Uiso   1.00
H10    H     0.37630   0.05242   0.06036   0.00000  Uiso   1.00
O6     O     0.83904   0.34188   0.17143   0.00000  Uiso   1.00
H11    H     0.76813   0.10149   0.24134   0.00000  Uiso   1.00
C6     C     0.96907   0.40024   0.03549   0.00000  Uiso   1.00
H12    H     0.94637   0.32295   0.06057   0.00000  Uiso   1.00
O7     O     0.50247   0.34219   0.33068   0.00000  Uiso   1.00
C7     C     0.43091   0.40070   0.46659   0.00000  Uiso   1.00
H14    H     0.37618   0.32349   0.44145   0.00000  Uiso   1.00
O8     O     0.83916   0.49665   0.33063   0.00000  Uiso   1.00
H15    H     0.84594   0.66678   0.19772   0.00000  Uiso   1.00
C8     C     0.96912   0.56826   0.46660   0.00000  Uiso   1.00
H16    H     0.94638   0.62285   0.44155   0.00000  Uiso   1.00
O9     O     0.65675   0.15987   0.33084   0.00000  Uiso   1.00
C9     C     0.59794   0.02927   0.46647   0.00000  Uiso   1.00
H18    H     0.67518   0.05178   0.44136   0.00000  Uiso   1.00
O10    O     0.49572   0.65753   0.83167   0.00000  Uiso   1.00
C10    C     0.56722   0.59877   0.96732   0.00000  Uiso   1.00
H20    H     0.62147   0.67649   0.94270   0.00000  Uiso   1.00
O11    O     0.16035   0.50217   0.83107   0.00000  Uiso   1.00
H21    H     0.23058   0.33261   0.76042   0.00000  Uiso   1.00
C11    C     0.03035   0.43080   0.96705   0.00000  Uiso   1.00
H22    H     0.05363   0.37642   0.94237   0.00000  Uiso   1.00
O12    O     0.34167   0.83814   0.83132   0.00000  Uiso   1.00
C12    C     0.40043   0.96858   0.96687   0.00000  Uiso   1.00
H24    H     0.32282   0.94529   0.94211   0.00000  Uiso   1.00
O13    O     0.65795   0.49568   0.33194   0.00000  Uiso   1.00
C13    C     0.59884   0.56739   0.46726   0.00000  Uiso   1.00
H26    H     0.67654   0.62167   0.44262   0.00000  Uiso   1.00
O14    O     0.50303   0.16132   0.33175   0.00000  Uiso   1.00
C14    C     0.43125   0.03051   0.46708   0.00000  Uiso   1.00
H28    H     0.37700   0.05400   0.44246   0.00000  Uiso   1.00
O15    O     0.83752   0.34135   0.33175   0.00000  Uiso   1.00
C15    C     0.96847   0.40063   0.46704   0.00000  Uiso   1.00
H30    H     0.94530   0.32303   0.44232   0.00000  Uiso   1.00
O16    O     0.34148   0.50283   0.83132   0.00000  Uiso   1.00
H31    H     0.15249   0.33202   0.69759   0.00000  Uiso   1.00
C16    C     0.40054   0.43084   0.96666   0.00000  Uiso   1.00
H32    H     0.32331   0.37612   0.94153   0.00000  Uiso   1.00
O17    O     0.49646   0.83867   0.83099   0.00000  Uiso   1.00
H33    H     0.66689   0.84572   0.69786   0.00000  Uiso   1.00
C17    C     0.56815   0.96941   0.96655   0.00000  Uiso   1.00
H34    H     0.62284   0.94679   0.94154   0.00000  Uiso   1.00
O18    O     0.16073   0.65685   0.83139   0.00000  Uiso   1.00
C18    C     0.02968   0.59776   0.96660   0.00000  Uiso   1.00
H36    H     0.05231   0.67504   0.94152   0.00000  Uiso   1.00
O19    O     0.49625   0.65702   0.67109   0.00000  Uiso   1.00
C19    C     0.56817   0.59800   0.53569   0.00000  Uiso   1.00
H38    H     0.62288   0.67524   0.56080   0.00000  Uiso   1.00
O20    O     0.16065   0.50323   0.67075   0.00000  Uiso   1.00
C20    C     0.02966   0.43131   0.53550   0.00000  Uiso   1.00
H40    H     0.05231   0.37667   0.56057   0.00000  Uiso   1.00
O21    O     0.34138   0.83795   0.67071   0.00000  Uiso   1.00
H41    H     0.15245   0.81967   0.80457   0.00000  Uiso   1.00
C21    C     0.40055   0.96910   0.53544   0.00000  Uiso   1.00
H42    H     0.32331   0.94660   0.56055   0.00000  Uiso   1.00
O22    O     0.50315   0.34079   0.17011   0.00000  Uiso   1.00
H43    H     0.33190   0.15335   0.30433   0.00000  Uiso   1.00
C22    C     0.43124   0.40007   0.03499   0.00000  Uiso   1.00
H44    H     0.37699   0.32233   0.05960   0.00000  Uiso   1.00
O23    O     0.83741   0.49554   0.17030   0.00000  Uiso   1.00
H45    H     0.76817   0.66613   0.26081   0.00000  Uiso   1.00
C23    C     0.96840   0.56721   0.03503   0.00000  Uiso   1.00
H46    H     0.94515   0.62161   0.05970   0.00000  Uiso   1.00
O24    O     0.65781   0.16164   0.17023   0.00000  Uiso   1.00
H47    H     0.84607   0.17866   0.30430   0.00000  Uiso   1.00
C24    C     0.59871   0.03062   0.03501   0.00000  Uiso   1.00
H48    H     0.67631   0.05387   0.05978   0.00000  Uiso   1.00
Fe1    Fe    0.25437   0.50941   0.75095   0.00000  Uiso   1.00
O25    O     0.17702   0.35531   0.75125   0.00000  Uiso   1.00
Fe2    Fe    0.48940   0.74442   0.75109   0.00000  Uiso   1.00
O26    O     0.64350   0.82175   0.75157   0.00000  Uiso   1.00
Fe3    Fe    0.25439   0.74434   0.75113   0.00000  Uiso   1.00
O27    O     0.17712   0.82117   0.75093   0.00000  Uiso   1.00
Fe4    Fe    0.74441   0.48937   0.25105   0.00000  Uiso   1.00
O28    O     0.82172   0.64347   0.25141   0.00000  Uiso   1.00
Fe5    Fe    0.50940   0.25435   0.25102   0.00000  Uiso   1.00
O29    O     0.35530   0.17702   0.25054   0.00000  Uiso   1.00
Fe6    Fe    0.74441   0.25447   0.25108   0.00000  Uiso   1.00
O30    O     0.82172   0.17768   0.25062   0.00000  Uiso   1.00
O31    O     0.33273   0.66605   0.75098   0.00000  Uiso   1.00
O32    O     0.66606   0.33273   0.25113   0.00000  Uiso   1.00
C25    C     0.43356   0.56525   0.64234   0.00000  Uiso   1.00
C26    C     0.46836   0.53047   0.57098   0.00000  Uiso   1.00
C27    C     0.43324   0.86721   0.64209   0.00000  Uiso   1.00
C28    C     0.46802   0.93673   0.57071   0.00000  Uiso   1.00
C29    C     0.13117   0.56577   0.64231   0.00000  Uiso   1.00
C30    C     0.06167   0.53101   0.57091   0.00000  Uiso   1.00
C31    C     0.56525   0.43321   0.14217   0.00000  Uiso   1.00
C32    C     0.53047   0.46810   0.07087   0.00000  Uiso   1.00
C33    C     0.56540   0.13136   0.14223   0.00000  Uiso   1.00
C34    C     0.53066   0.06188   0.07080   0.00000  Uiso   1.00
C35    C     0.86750   0.43329   0.14226   0.00000  Uiso   1.00
C36    C     0.93702   0.46792   0.07086   0.00000  Uiso   1.00
C37    C     0.56555   0.43353   0.35992   0.00000  Uiso   1.00
C38    C     0.53074   0.46822   0.43132   0.00000  Uiso   1.00
C39    C     0.86762   0.43370   0.35979   0.00000  Uiso   1.00
C40    C     0.93712   0.46857   0.43120   0.00000  Uiso   1.00
C41    C     0.56526   0.13129   0.35988   0.00000  Uiso   1.00
C42    C     0.53048   0.06167   0.43122   0.00000  Uiso   1.00
C43    C     0.43322   0.56553   0.86010   0.00000  Uiso   1.00
C44    C     0.46798   0.53073   0.93145   0.00000  Uiso   1.00
C45    C     0.13126   0.56484   0.85983   0.00000  Uiso   1.00
C46    C     0.06173   0.53009   0.93123   0.00000  Uiso   1.00
C47    C     0.43372   0.86772   0.85973   0.00000  Uiso   1.00
C48    C     0.46847   0.93730   0.93110   0.00000  Uiso   1.00
loop_
_geom_bond_atom_site_label_1
_geom_bond_atom_site_label_2
_geom_bond_distance
_geom_bond_site_symmetry_2
_ccdc_geom_bond_type
O1     Fe1     1.906   .     S
O1     C25     1.272   .     D
C1     H2      1.083   .     S
C1     C7      1.410   .     D
C1     C26     1.411   .     S
O2     Fe2     1.907   .     S
O2     C27     1.272   .     S
H3     O26     0.991   .     S
C2     H4      1.083   .     S
C2     C9      1.410   1_565 S
C2     C28     1.411   .     D
O3     Fe3     1.905   .     S
O3     C29     1.272   .     D
H5     O27     0.991   .     S
C3     H6      1.083   .     S
C3     C8      1.410   1_455 S
C3     C30     1.411   .     D
O4     Fe4     1.908   .     S
O4     C31     1.272   .     D
C4     H8      1.083   .     S
C4     C10     1.410   1_554 S
C4     C32     1.411   .     D
O5     Fe5     1.906   .     S
O5     C33     1.273   .     D
H9     O29     0.990   .     S
C5     H10     1.083   .     S
C5     C12     1.410   1_544 D
C5     C34     1.411   .     S
O6     Fe6     1.905   .     S
O6     C35     1.272   .     S
H11    O30     0.990   .     S
C6     H12     1.083   .     S
C6     C11     1.410   1_654 S
C6     C36     1.411   .     D
O7     Fe5     1.908   .     S
O7     C37     1.273   .     D
C7     H14     1.083   .     S
C7     C38     1.411   .     S
O8     Fe4     1.905   .     S
O8     C39     1.272   .     D
H15    O28     0.990   .     S
C8     C3      1.410   1_655 S
C8     H16     1.083   .     S
C8     C40     1.411   .     D
O9     Fe6     1.907   .     S
O9     C41     1.272   .     D
C9     C2      1.410   1_545 S
C9     H18     1.083   .     S
C9     C42     1.411   .     D
O10    Fe2     1.907   .     S
O10    C43     1.272   .     D
C10    C4      1.410   1_556 S
C10    H20     1.083   .     S
C10    C44     1.411   .     D
O11    Fe1     1.905   .     S
O11    C45     1.272   .     D
H21    O25     0.991   .     S
C11    C6      1.410   1_456 S
C11    H22     1.083   .     S
C11    C46     1.411   .     D
O12    Fe3     1.907   .     S
O12    C47     1.272   .     D
C12    C5      1.410   1_566 D
C12    H24     1.083   .     S
C12    C48     1.411   .     S
O13    Fe4     1.906   .     S
O13    C37     1.272   .     S
C13    H26     1.083   .     S
C13    C19     1.410   .     S
C13    C38     1.411   .     D
O14    Fe5     1.907   .     S
O14    C41     1.272   .     S
C14    H28     1.083   .     S
C14    C21     1.410   1_545 D
C14    C42     1.411   .     S
O15    Fe6     1.907   .     S
O15    C39     1.272   .     S
C15    H30     1.083   .     S
C15    C20     1.410   1_655 D
C15    C40     1.411   .     S
O16    Fe1     1.908   .     S
O16    C43     1.272   .     S
H31    O25     0.991   .     S
C16    H32     1.083   .     S
C16    C22     1.410   1_556 D
C16    C44     1.411   .     S
O17    Fe2     1.905   .     S
O17    C47     1.273   .     S
H33    O26     0.990   .     S
C17    H34     1.083   .     S
C17    C24     1.410   1_566 S
C17    C48     1.411   .     D
O18    Fe3     1.908   .     S
O18    C45     1.272   .     S
C18    H36     1.083   .     S
C18    C23     1.410   1_456 D
C18    C46     1.411   .     S
O19    Fe2     1.907   .     S
O19    C25     1.272   .     S
C19    H38     1.083   .     S
C19    C26     1.411   .     D
O20    Fe1     1.908   .     S
O20    C29     1.272   .     S
C20    C15     1.410   1_455 D
C20    H40     1.083   .     S
C20    C30     1.411   .     S
O21    Fe3     1.907   .     S
O21    C27     1.272   .     D
H41    O27     0.991   .     S
C21    C14     1.410   1_565 D
C21    H42     1.083   .     S
C21    C28     1.411   .     S
O22    Fe5     1.906   .     S
O22    C31     1.272   .     S
H43    O29     0.991   .     S
C22    C16     1.410   1_554 D
C22    H44     1.083   .     S
C22    C32     1.411   .     S
O23    Fe4     1.907   .     S
O23    C35     1.272   .     D
H45    O28     0.991   .     S
C23    C18     1.410   1_654 D
C23    H46     1.083   .     S
C23    C36     1.411   .     S
O24    Fe6     1.907   .     S
O24    C33     1.272   .     S
H47    O30     0.991   .     S
C24    C17     1.410   1_544 S
C24    H48     1.083   .     S
C24    C34     1.411   .     D
Fe1    O25     1.924   .     S
Fe1    O31     1.956   .     S
Fe2    O26     1.924   .     S
Fe2    O31     1.956   .     S
Fe3    O27     1.924   .     S
Fe3    O31     1.956   .     S
Fe4    O28     1.924   .     S
Fe4    O32     1.956   .     S
Fe5    O29     1.924   .     S
Fe5    O32     1.956   .     S
Fe6    O30     1.924   .     S
Fe6    O32     1.955   .     S
C25    C26     1.510   .     S
C27    C28     1.510   .     S
C29    C30     1.510   .     S
C31    C32     1.510   .     S
C33    C34     1.510   .     S
C35    C36     1.510   .     S
C37    C38     1.510   .     S
C39    C40     1.510   .     S
C41    C42     1.510   .     S
C43    C44     1.510   .     S
C45    C46     1.510   .     S
C47    C48     1.510   .     S
