data_LELQOL_FSR
_audit_creation_date              2024-06-11
_audit_creation_method            'Materials Studio'
_symmetry_space_group_name_H-M    'P1'
_symmetry_Int_Tables_number       1
_symmetry_cell_setting            triclinic
loop_
_symmetry_equiv_pos_as_xyz
  x,y,z
_cell_length_a                    9.5610
_cell_length_b                    15.0860
_cell_length_c                    16.7220
_cell_angle_alpha                 94.7230
_cell_angle_beta                  97.6020
_cell_angle_gamma                 97.8800
loop_
_atom_site_label
_atom_site_type_symbol
_atom_site_fract_x
_atom_site_fract_y
_atom_site_fract_z
_atom_site_U_iso_or_equiv
_atom_site_adp_type
_atom_site_occupancy
Ni1    Ni    0.60640   0.99740   0.93390   0.00000  Uiso   1.00
Ni2    Ni    0.74830   0.51860   0.43680   0.00000  Uiso   1.00
P3     P     0.43520   0.80700   0.97940   0.00000  Uiso   1.00
P4     P     0.84360   0.14670   0.86700   0.00000  Uiso   1.00
P5     P     0.15210   0.12610   0.09290   0.00000  Uiso   1.00
P6     P     0.41310   0.97270   0.75660   0.00000  Uiso   1.00
O7     O     0.48900   0.90720   0.99910   0.00000  Uiso   1.00
O8     O     0.29400   0.10240   0.11530   0.00000  Uiso   1.00
O9     O     0.69800   0.09620   0.86570   0.00000  Uiso   1.00
O10    O     0.95400   0.08470   0.84140   0.00000  Uiso   1.00
O11    O     0.90500   0.19970   0.94820   0.00000  Uiso   1.00
O12    O     0.27400   0.77880   0.95730   0.00000  Uiso   1.00
O13    O     0.50100   0.77290   0.90330   0.00000  Uiso   1.00
O14    O     0.76500   0.01960   0.03670   0.00000  Uiso   1.00
O15    O     0.43200   0.96860   0.84750   0.00000  Uiso   1.00
O16    O     0.14700   0.17790   0.01540   0.00000  Uiso   1.00
O17    O     0.25800   0.96780   0.71320   0.00000  Uiso   1.00
O18    O     0.04100   0.04180   0.07980   0.00000  Uiso   1.00
O19    O     0.50200   0.06290   0.74180   0.00000  Uiso   1.00
N20    N     0.76600   0.50170   0.32600   0.00000  Uiso   1.00
N21    N     0.71000   0.52840   0.54850   0.00000  Uiso   1.00
N22    N     0.85000   0.42080   0.45870   0.00000  Uiso   1.00
N23    N     0.66400   0.62520   0.41850   0.00000  Uiso   1.00
C24    C     0.97500   0.32200   0.52500   0.00000  Uiso   1.00
H25    H     0.01380   0.29080   0.56820   0.00000  Uiso   1.00
C26    C     0.63000   0.68600   0.47600   0.00000  Uiso   1.00
C27    C     0.64600   0.66100   0.34300   0.00000  Uiso   1.00
C28    C     0.65700   0.62300   0.26900   0.00000  Uiso   1.00
C29    C     0.70400   0.53900   0.26400   0.00000  Uiso   1.00
C30    C     0.83200   0.43500   0.28900   0.00000  Uiso   1.00
C31    C     0.98600   0.31800   0.27400   0.00000  Uiso   1.00
C32    C     0.96100   0.22600   0.27500   0.00000  Uiso   1.00
H33    H     0.90530   0.20130   0.31380   0.00000  Uiso   1.00
C34    C     0.01400   0.16700   0.22200   0.00000  Uiso   1.00
H35    H     0.99250   0.10410   0.22230   0.00000  Uiso   1.00
C36    C     0.10300   0.20500   0.16600   0.00000  Uiso   1.00
C37    C     0.14000   0.29700   0.16900   0.00000  Uiso   1.00
H38    H     0.20720   0.32320   0.13750   0.00000  Uiso   1.00
C39    C     0.07400   0.35000   0.21900   0.00000  Uiso   1.00
H40    H     0.08910   0.41270   0.21590   0.00000  Uiso   1.00
C41    C     0.72700   0.46300   0.60700   0.00000  Uiso   1.00
C42    C     0.81200   0.39900   0.59900   0.00000  Uiso   1.00
C43    C     0.58800   0.76200   0.44000   0.00000  Uiso   1.00
H44    H     0.55510   0.81140   0.46670   0.00000  Uiso   1.00
C45    C     0.60500   0.75100   0.36000   0.00000  Uiso   1.00
H46    H     0.59170   0.79350   0.32190   0.00000  Uiso   1.00
C47    C     0.92500   0.37500   0.41100   0.00000  Uiso   1.00
C48    C     0.62000   0.67300   0.55500   0.00000  Uiso   1.00
C49    C     0.59700   0.66200   0.19600   0.00000  Uiso   1.00
C50    C     0.67200   0.74400   0.17700   0.00000  Uiso   1.00
H51    H     0.75720   0.76840   0.21230   0.00000  Uiso   1.00
C52    C     0.63500   0.79200   0.11100   0.00000  Uiso   1.00
H53    H     0.69020   0.84480   0.09750   0.00000  Uiso   1.00
C54    C     0.50100   0.75000   0.06600   0.00000  Uiso   1.00
C55    C     0.42200   0.67200   0.08000   0.00000  Uiso   1.00
H56    H     0.33560   0.64770   0.04580   0.00000  Uiso   1.00
C57    C     0.47500   0.62900   0.14600   0.00000  Uiso   1.00
H58    H     0.42160   0.57460   0.15700   0.00000  Uiso   1.00
C59    C     0.82800   0.34000   0.66500   0.00000  Uiso   1.00
C60    C     0.89000   0.37000   0.74200   0.00000  Uiso   1.00
H61    H     0.92930   0.43190   0.75450   0.00000  Uiso   1.00
C62    C     0.89600   0.31400   0.80100   0.00000  Uiso   1.00
H63    H     0.94230   0.33750   0.85380   0.00000  Uiso   1.00
C64    C     0.83500   0.22000   0.78800   0.00000  Uiso   1.00
C65    C     0.77700   0.19000   0.70800   0.00000  Uiso   1.00
H66    H     0.74280   0.12810   0.69480   0.00000  Uiso   1.00
C67    C     0.76500   0.24800   0.64600   0.00000  Uiso   1.00
H68    H     0.71700   0.22550   0.59320   0.00000  Uiso   1.00
C69    C     0.87300   0.38100   0.53300   0.00000  Uiso   1.00
C70    C     0.64400   0.59200   0.58900   0.00000  Uiso   1.00
C71    C     0.01100   0.31500   0.45200   0.00000  Uiso   1.00
H72    H     0.07570   0.28030   0.43090   0.00000  Uiso   1.00
C73    C     0.90800   0.37700   0.32500   0.00000  Uiso   1.00
C74    C     0.48600   0.87900   0.70300   0.00000  Uiso   1.00
C75    C     0.57000   0.74200   0.60800   0.00000  Uiso   1.00
C76    C     0.64900   0.81800   0.63600   0.00000  Uiso   1.00
H77    H     0.74450   0.82360   0.62410   0.00000  Uiso   1.00
C78    C     0.61400   0.89300   0.68000   0.00000  Uiso   1.00
H79    H     0.67640   0.94880   0.69240   0.00000  Uiso   1.00
C80    C     0.71800   0.49600   0.18200   0.00000  Uiso   1.00
H81    H     0.68090   0.51120   0.13000   0.00000  Uiso   1.00
C82    C     0.79600   0.43100   0.20100   0.00000  Uiso   1.00
H83    H     0.82290   0.38830   0.16270   0.00000  Uiso   1.00
C84    C     0.61000   0.56500   0.66400   0.00000  Uiso   1.00
H85    H     0.56450   0.59740   0.70170   0.00000  Uiso   1.00
C86    C     0.65600   0.48800   0.67200   0.00000  Uiso   1.00
H87    H     0.64210   0.45380   0.71550   0.00000  Uiso   1.00
C88    C     0.37800   0.83700   0.63200   0.00000  Uiso   1.00
H89    H     0.29450   0.86390   0.61720   0.00000  Uiso   1.00
C90    C     0.42400   0.75400   0.58600   0.00000  Uiso   1.00
H91    H     0.36700   0.72050   0.53950   0.00000  Uiso   1.00
Ni92   Ni    0.39360   0.00260   0.06610   0.00000  Uiso   1.00
Ni93   Ni    0.25170   0.48140   0.56320   0.00000  Uiso   1.00
P94    P     0.56480   0.19300   0.02060   0.00000  Uiso   1.00
P95    P     0.15640   0.85330   0.13300   0.00000  Uiso   1.00
P96    P     0.84790   0.87390   0.90710   0.00000  Uiso   1.00
P97    P     0.58690   0.02730   0.24340   0.00000  Uiso   1.00
O98    O     0.51100   0.09280   0.00090   0.00000  Uiso   1.00
O99    O     0.70600   0.89760   0.88470   0.00000  Uiso   1.00
O100   O     0.30200   0.90380   0.13430   0.00000  Uiso   1.00
O101   O     0.04600   0.91530   0.15860   0.00000  Uiso   1.00
O102   O     0.09500   0.80030   0.05180   0.00000  Uiso   1.00
O103   O     0.72600   0.22120   0.04270   0.00000  Uiso   1.00
O104   O     0.49900   0.22710   0.09670   0.00000  Uiso   1.00
O105   O     0.23500   0.98040   0.96330   0.00000  Uiso   1.00
O106   O     0.56800   0.03140   0.15250   0.00000  Uiso   1.00
O107   O     0.85300   0.82210   0.98460   0.00000  Uiso   1.00
O108   O     0.74200   0.03220   0.28680   0.00000  Uiso   1.00
O109   O     0.95900   0.95820   0.92020   0.00000  Uiso   1.00
O110   O     0.49800   0.93710   0.25820   0.00000  Uiso   1.00
N111   N     0.23400   0.49830   0.67400   0.00000  Uiso   1.00
N112   N     0.29000   0.47160   0.45150   0.00000  Uiso   1.00
N113   N     0.15000   0.57920   0.54130   0.00000  Uiso   1.00
N114   N     0.33600   0.37480   0.58150   0.00000  Uiso   1.00
C115   C     0.02500   0.67800   0.47500   0.00000  Uiso   1.00
H116   H     0.98620   0.70920   0.43180   0.00000  Uiso   1.00
C117   C     0.37000   0.31400   0.52400   0.00000  Uiso   1.00
C118   C     0.35400   0.33900   0.65700   0.00000  Uiso   1.00
C119   C     0.34300   0.37700   0.73100   0.00000  Uiso   1.00
C120   C     0.29600   0.46100   0.73600   0.00000  Uiso   1.00
C121   C     0.16800   0.56500   0.71100   0.00000  Uiso   1.00
C122   C     0.01400   0.68200   0.72600   0.00000  Uiso   1.00
C123   C     0.03900   0.77400   0.72500   0.00000  Uiso   1.00
H124   H     0.09470   0.79870   0.68620   0.00000  Uiso   1.00
C125   C     0.98600   0.83300   0.77800   0.00000  Uiso   1.00
H126   H     0.00750   0.89590   0.77770   0.00000  Uiso   1.00
C127   C     0.89700   0.79500   0.83400   0.00000  Uiso   1.00
C128   C     0.86000   0.70300   0.83100   0.00000  Uiso   1.00
H129   H     0.79280   0.67680   0.86250   0.00000  Uiso   1.00
C130   C     0.92600   0.65000   0.78100   0.00000  Uiso   1.00
H131   H     0.91090   0.58730   0.78410   0.00000  Uiso   1.00
C132   C     0.27300   0.53700   0.39300   0.00000  Uiso   1.00
C133   C     0.18800   0.60100   0.40100   0.00000  Uiso   1.00
C134   C     0.41200   0.23800   0.56000   0.00000  Uiso   1.00
H135   H     0.44490   0.18860   0.53330   0.00000  Uiso   1.00
C136   C     0.39500   0.24900   0.64000   0.00000  Uiso   1.00
H137   H     0.40830   0.20650   0.67810   0.00000  Uiso   1.00
C138   C     0.07500   0.62500   0.58900   0.00000  Uiso   1.00
C139   C     0.38000   0.32700   0.44500   0.00000  Uiso   1.00
C140   C     0.40300   0.33800   0.80400   0.00000  Uiso   1.00
C141   C     0.32800   0.25600   0.82300   0.00000  Uiso   1.00
H142   H     0.24280   0.23160   0.78770   0.00000  Uiso   1.00
C143   C     0.36500   0.20800   0.88900   0.00000  Uiso   1.00
H144   H     0.30980   0.15520   0.90250   0.00000  Uiso   1.00
C145   C     0.49900   0.25000   0.93400   0.00000  Uiso   1.00
C146   C     0.57800   0.32800   0.92000   0.00000  Uiso   1.00
H147   H     0.66440   0.35230   0.95420   0.00000  Uiso   1.00
C148   C     0.52500   0.37100   0.85400   0.00000  Uiso   1.00
H149   H     0.57840   0.42540   0.84300   0.00000  Uiso   1.00
C150   C     0.17200   0.66000   0.33500   0.00000  Uiso   1.00
C151   C     0.11000   0.63000   0.25800   0.00000  Uiso   1.00
H152   H     0.07070   0.56810   0.24550   0.00000  Uiso   1.00
C153   C     0.10400   0.68600   0.19900   0.00000  Uiso   1.00
H154   H     0.05770   0.66250   0.14620   0.00000  Uiso   1.00
C155   C     0.16500   0.78000   0.21200   0.00000  Uiso   1.00
C156   C     0.22300   0.81000   0.29200   0.00000  Uiso   1.00
H157   H     0.25720   0.87190   0.30520   0.00000  Uiso   1.00
C158   C     0.23500   0.75200   0.35400   0.00000  Uiso   1.00
H159   H     0.28300   0.77450   0.40680   0.00000  Uiso   1.00
C160   C     0.12700   0.61900   0.46700   0.00000  Uiso   1.00
C161   C     0.35600   0.40800   0.41100   0.00000  Uiso   1.00
C162   C     0.98900   0.68500   0.54800   0.00000  Uiso   1.00
H163   H     0.92430   0.71970   0.56910   0.00000  Uiso   1.00
C164   C     0.09200   0.62300   0.67500   0.00000  Uiso   1.00
C165   C     0.51400   0.12100   0.29700   0.00000  Uiso   1.00
C166   C     0.43000   0.25800   0.39200   0.00000  Uiso   1.00
C167   C     0.35100   0.18200   0.36400   0.00000  Uiso   1.00
H168   H     0.25550   0.17640   0.37590   0.00000  Uiso   1.00
C169   C     0.38600   0.10700   0.32000   0.00000  Uiso   1.00
H170   H     0.32360   0.05120   0.30760   0.00000  Uiso   1.00
C171   C     0.28200   0.50400   0.81800   0.00000  Uiso   1.00
H172   H     0.31910   0.48880   0.87000   0.00000  Uiso   1.00
C173   C     0.20400   0.56900   0.79900   0.00000  Uiso   1.00
H174   H     0.17710   0.61170   0.83730   0.00000  Uiso   1.00
C175   C     0.39000   0.43500   0.33600   0.00000  Uiso   1.00
H176   H     0.43550   0.40260   0.29830   0.00000  Uiso   1.00
C177   C     0.34400   0.51200   0.32800   0.00000  Uiso   1.00
H178   H     0.35790   0.54620   0.28450   0.00000  Uiso   1.00
C179   C     0.62200   0.16300   0.36800   0.00000  Uiso   1.00
H180   H     0.70550   0.13610   0.38280   0.00000  Uiso   1.00
C181   C     0.57600   0.24600   0.41400   0.00000  Uiso   1.00
H182   H     0.63300   0.27950   0.46050   0.00000  Uiso   1.00
loop_
_geom_bond_atom_site_label_1
_geom_bond_atom_site_label_2
_geom_bond_distance
_geom_bond_site_symmetry_2
_ccdc_geom_bond_type
Ni1    O14     2.108   1_566 S
Ni1    O15     2.029   .     S
Ni1    O7      2.109   .     S
Ni1    O98     2.127   1_566 S
Ni1    O99     2.061   .     S
Ni1    O9      2.116   1_565 S
Ni2    N20     1.882   .     S
Ni2    N21     1.948   .     S
Ni2    N22     1.909   .     S
Ni2    N23     1.924   .     S
P3     O7      1.523   .     S
P3     O12     1.529   .     S
P3     O13     1.572   .     S
P3     C54     1.829   1_556 S
P4     O9      1.489   .     S
P4     O10     1.580   .     S
P4     O11     1.520   .     S
P4     C64     1.792   .     S
P5     O8      1.459   .     S
P5     O16     1.566   .     S
P5     O18     1.522   .     S
P5     C36     1.788   .     S
P6     O15     1.514   .     S
P6     O17     1.552   .     S
P6     O19     1.559   1_565 S
P6     C74     1.875   .     S
O7     Ni92    2.127   1_566 S
O8     Ni92    2.061   .     S
O9     Ni1     2.116   1_545 S
O14    Ni1     2.108   1_544 S
O19    P6      1.559   1_545 S
N20    C29     1.330   .     S
N20    C30     1.403   .     S
N21    C41     1.455   .     S
N21    C70     1.396   .     S
N22    C47     1.351   .     S
N22    C69     1.428   .     S
N23    C26     1.375   .     S
N23    C27     1.413   .     S
C24    H25     0.956   1_655 S
C24    C71     1.311   1_655 S
C24    C69     1.419   .     S
H25    C24     0.956   1_455 S
C26    C43     1.419   .     S
C26    C48     1.365   .     S
C27    C28     1.344   .     S
C27    C45     1.480   .     S
C28    C29     1.401   .     S
C28    C49     1.480   .     S
C29    C80     1.498   .     S
C30    C73     1.342   .     S
C30    C82     1.461   .     S
C31    C32     1.378   .     S
C31    C39     1.398   1_655 S
C31    C73     1.517   .     S
C32    H33     0.959   .     S
C32    C34     1.395   1_655 S
C34    C32     1.395   1_455 S
C34    H35     0.944   1_455 S
C34    C36     1.447   .     S
H35    C34     0.944   1_655 S
C36    C37     1.380   .     S
C37    H38     0.949   .     S
C37    C39     1.380   .     S
C39    C31     1.398   1_455 S
C39    H40     0.944   .     S
C41    C42     1.354   .     S
C41    C86     1.408   .     S
C42    C59     1.479   .     S
C42    C69     1.340   .     S
C43    H44     0.949   .     S
C43    C45     1.368   .     S
C45    H46     0.949   .     S
C47    C71     1.457   1_655 S
C47    C73     1.429   .     S
C48    C75     1.481   .     S
C48    C70     1.423   .     S
C49    C50     1.424   .     S
C49    C57     1.350   .     S
C50    H51     0.950   .     S
C50    C52     1.402   .     S
C52    H53     0.954   .     S
C52    C54     1.433   .     S
C54    P3      1.829   1_554 S
C54    C55     1.363   .     S
C55    H56     0.949   .     S
C55    C57     1.398   .     S
C57    H58     0.950   .     S
C59    C60     1.357   .     S
C59    C67     1.427   .     S
C60    H61     0.953   .     S
C60    C62     1.351   .     S
C62    H63     0.950   .     S
C62    C64     1.445   .     S
C64    C65     1.392   .     S
C65    H66     0.944   .     S
C65    C67     1.414   .     S
C67    H68     0.952   .     S
C70    C84     1.414   .     S
C71    C24     1.311   1_455 S
C71    H72     0.947   .     S
C71    C47     1.457   1_455 S
C74    C78     1.326   .     S
C74    C88     1.500   .     S
C75    C76     1.298   .     S
C75    C90     1.436   .     S
C76    H77     0.954   .     S
C76    C78     1.402   .     S
C78    H79     0.953   .     S
C80    H81     0.953   .     S
C80    C82     1.345   .     S
C82    H83     0.955   .     S
C84    H85     0.952   .     S
C84    C86     1.308   .     S
C86    H87     0.939   .     S
C88    H89     0.957   .     S
C88    C90     1.560   .     S
C90    H91     0.951   .     S
Ni92   O105    2.108   1_544 S
Ni92   O106    2.029   .     S
Ni92   O98     2.109   .     S
Ni92   O7      2.127   1_544 S
Ni92   O100    2.116   1_545 S
Ni93   N111    1.882   .     S
Ni93   N112    1.948   .     S
Ni93   N113    1.909   .     S
Ni93   N114    1.924   .     S
P94    O98     1.523   .     S
P94    O103    1.529   .     S
P94    O104    1.572   .     S
P94    C145    1.829   1_554 S
P95    O100    1.489   .     S
P95    O101    1.580   .     S
P95    O102    1.520   .     S
P95    C155    1.792   .     S
P96    O99     1.459   .     S
P96    O107    1.566   .     S
P96    O109    1.522   .     S
P96    C127    1.788   .     S
P97    O106    1.514   .     S
P97    O108    1.552   .     S
P97    O110    1.559   1_545 S
P97    C165    1.875   .     S
O98    Ni1     2.127   1_544 S
O100   Ni92    2.116   1_565 S
O105   Ni92    2.108   1_566 S
O110   P97     1.559   1_565 S
N111   C120    1.330   .     S
N111   C121    1.403   .     S
N112   C132    1.455   .     S
N112   C161    1.396   .     S
N113   C138    1.351   .     S
N113   C160    1.428   .     S
N114   C117    1.375   .     S
N114   C118    1.413   .     S
C115   H116    0.956   1_455 S
C115   C162    1.311   1_455 S
C115   C160    1.419   .     S
H116   C115    0.956   1_655 S
C117   C134    1.419   .     S
C117   C139    1.365   .     S
C118   C119    1.344   .     S
C118   C136    1.480   .     S
C119   C120    1.401   .     S
C119   C140    1.480   .     S
C120   C171    1.498   .     S
C121   C164    1.342   .     S
C121   C173    1.461   .     S
C122   C123    1.378   .     S
C122   C130    1.398   1_455 S
C122   C164    1.517   .     S
C123   H124    0.959   .     S
C123   C125    1.395   1_455 S
C125   C123    1.395   1_655 S
C125   H126    0.944   1_655 S
C125   C127    1.447   .     S
H126   C125    0.944   1_455 S
C127   C128    1.380   .     S
C128   H129    0.949   .     S
C128   C130    1.380   .     S
C130   C122    1.398   1_655 S
C130   H131    0.944   .     S
C132   C133    1.354   .     S
C132   C177    1.408   .     S
C133   C150    1.479   .     S
C133   C160    1.340   .     S
C134   H135    0.949   .     S
C134   C136    1.368   .     S
C136   H137    0.949   .     S
C138   C162    1.457   1_455 S
C138   C164    1.429   .     S
C139   C166    1.481   .     S
C139   C161    1.423   .     S
C140   C141    1.424   .     S
C140   C148    1.350   .     S
C141   H142    0.950   .     S
C141   C143    1.402   .     S
C143   H144    0.954   .     S
C143   C145    1.433   .     S
C145   P94     1.829   1_556 S
C145   C146    1.363   .     S
C146   H147    0.949   .     S
C146   C148    1.398   .     S
C148   H149    0.950   .     S
C150   C151    1.357   .     S
C150   C158    1.427   .     S
C151   H152    0.953   .     S
C151   C153    1.351   .     S
C153   H154    0.950   .     S
C153   C155    1.445   .     S
C155   C156    1.392   .     S
C156   H157    0.944   .     S
C156   C158    1.414   .     S
C158   H159    0.952   .     S
C161   C175    1.414   .     S
C162   C115    1.311   1_655 S
C162   H163    0.947   .     S
C162   C138    1.457   1_655 S
C165   C169    1.326   .     S
C165   C179    1.500   .     S
C166   C167    1.298   .     S
C166   C181    1.436   .     S
C167   H168    0.954   .     S
C167   C169    1.402   .     S
C169   H170    0.953   .     S
C171   H172    0.953   .     S
C171   C173    1.345   .     S
C173   H174    0.955   .     S
C175   H176    0.952   .     S
C175   C177    1.308   .     S
C177   H178    0.939   .     S
C179   H180    0.957   .     S
C179   C181    1.560   .     S
C181   H182    0.951   .     S
