data_LIQFOI_FSR
_audit_creation_date              2024-06-11
_audit_creation_method            'Materials Studio'
_symmetry_space_group_name_H-M    'P1'
_symmetry_Int_Tables_number       1
_symmetry_cell_setting            triclinic
loop_
_symmetry_equiv_pos_as_xyz
  x,y,z
_cell_length_a                    10.9156
_cell_length_b                    16.1295
_cell_length_c                    22.7010
_cell_angle_alpha                 90.0000
_cell_angle_beta                  94.5230
_cell_angle_gamma                 90.0000
loop_
_atom_site_label
_atom_site_type_symbol
_atom_site_fract_x
_atom_site_fract_y
_atom_site_fract_z
_atom_site_U_iso_or_equiv
_atom_site_adp_type
_atom_site_occupancy
W1     W     0.73833   0.02287   0.11514   0.00000  Uiso   1.00
W2     W     0.43524   0.09321   0.13606   0.00000  Uiso   1.00
W3     W     0.19618   0.06617   0.02243   0.00000  Uiso   1.00
W4     W     0.49845   0.87720   0.12983   0.00000  Uiso   1.00
W5     W     0.26374   0.85045   0.01340   0.00000  Uiso   1.00
W6     W     0.56870   0.78485   0.99408   0.00000  Uiso   1.00
O7     O     0.46680   0.91240   0.02520   0.00000  Uiso   1.00
O8     O     0.42070   0.06060   0.03070   0.00000  Uiso   1.00
O9     O     0.62620   0.01420   0.01600   0.00000  Uiso   1.00
O10    O     0.53610   0.00210   0.06430   0.00000  Uiso   1.00
O11    O     0.60730   0.08510   0.14350   0.00000  Uiso   1.00
O12    O     0.84890   0.03430   0.17050   0.00000  Uiso   1.00
O13    O     0.65620   0.92770   0.13950   0.00000  Uiso   1.00
O14    O     0.23540   0.88490   0.93420   0.00000  Uiso   1.00
O15    O     0.18530   0.04270   0.94040   0.00000  Uiso   1.00
O16    O     0.43580   0.97990   0.15520   0.00000  Uiso   1.00
O17    O     0.40810   0.13520   0.20150   0.00000  Uiso   1.00
O18    O     0.55390   0.81430   0.91260   0.00000  Uiso   1.00
O19    O     0.27520   0.07800   0.09960   0.00000  Uiso   1.00
O20    O     0.72610   0.83420   0.99620   0.00000  Uiso   1.00
O21    O     0.18910   0.95100   0.03500   0.00000  Uiso   1.00
O22    O     0.05570   0.09690   0.03150   0.00000  Uiso   1.00
O23    O     0.50000   0.81930   0.19080   0.00000  Uiso   1.00
O24    O     0.15230   0.78100   0.01890   0.00000  Uiso   1.00
O25    O     0.56850   0.80470   0.07490   0.00000  Uiso   1.00
O26    O     0.34590   0.85110   0.09030   0.00000  Uiso   1.00
O27    O     0.39590   0.78430   0.99060   0.00000  Uiso   1.00
O28    O     0.60140   0.68440   0.99220   0.00000  Uiso   1.00
Ni29   Ni    0.27344   0.15053   0.28837   0.00000  Uiso   1.00
O30    O     0.15550   0.16010   0.36630   0.00000  Uiso   1.00
H31    H     0.18940   0.15670   0.40140   0.00000  Uiso   1.00
H32    H     0.08010   0.14640   0.36120   0.00000  Uiso   1.00
O33    O     0.41030   0.09940   0.33660   0.00000  Uiso   1.00
H34    H     0.41230   0.04880   0.32610   0.00000  Uiso   1.00
H35    H     0.40010   0.09880   0.37340   0.00000  Uiso   1.00
N36    N     0.16170   0.21010   0.22910   0.00000  Uiso   1.00
N37    N     0.34270   0.26430   0.29800   0.00000  Uiso   1.00
O38    O     0.36270   0.39100   0.14560   0.00000  Uiso   1.00
O39    O     0.20020   0.42030   0.08480   0.00000  Uiso   1.00
H40    H     0.24700   0.45590   0.07390   0.00000  Uiso   1.00
O41    O     0.29570   0.54320   0.23670   0.00000  Uiso   1.00
O42    O     0.13780   0.46020   0.21330   0.00000  Uiso   1.00
C43    C     0.07200   0.17170   0.19460   0.00000  Uiso   1.00
H44    H     0.03850   0.12240   0.20710   0.00000  Uiso   1.00
C45    C     0.03010   0.20600   0.14080   0.00000  Uiso   1.00
H46    H     0.96190   0.18320   0.11960   0.00000  Uiso   1.00
C47    C     0.08830   0.27330   0.11840   0.00000  Uiso   1.00
H48    H     0.06560   0.29250   0.08050   0.00000  Uiso   1.00
C49    C     0.18230   0.31240   0.15360   0.00000  Uiso   1.00
C50    C     0.20960   0.28250   0.21060   0.00000  Uiso   1.00
C51    C     0.25340   0.37940   0.12670   0.00000  Uiso   1.00
C52    C     0.41970   0.28820   0.34540   0.00000  Uiso   1.00
H53    H     0.45460   0.24840   0.37120   0.00000  Uiso   1.00
C54    C     0.44510   0.36830   0.35490   0.00000  Uiso   1.00
H55    H     0.50120   0.38380   0.38590   0.00000  Uiso   1.00
C56    C     0.38870   0.42780   0.31910   0.00000  Uiso   1.00
H57    H     0.40400   0.48350   0.32710   0.00000  Uiso   1.00
C58    C     0.30740   0.40500   0.27030   0.00000  Uiso   1.00
C59    C     0.29090   0.32100   0.25990   0.00000  Uiso   1.00
C60    C     0.24100   0.47530   0.23660   0.00000  Uiso   1.00
W61    W     0.76167   0.52287   0.38486   0.00000  Uiso   1.00
W62    W     0.06476   0.59321   0.36394   0.00000  Uiso   1.00
W63    W     0.30382   0.56617   0.47757   0.00000  Uiso   1.00
W64    W     0.00155   0.37720   0.37017   0.00000  Uiso   1.00
W65    W     0.23626   0.35045   0.48660   0.00000  Uiso   1.00
W66    W     0.93130   0.28485   0.50592   0.00000  Uiso   1.00
O67    O     0.03320   0.41240   0.47480   0.00000  Uiso   1.00
O68    O     0.07930   0.56060   0.46930   0.00000  Uiso   1.00
O69    O     0.87380   0.51420   0.48400   0.00000  Uiso   1.00
O70    O     0.96390   0.50210   0.43570   0.00000  Uiso   1.00
O71    O     0.89270   0.58510   0.35650   0.00000  Uiso   1.00
O72    O     0.65110   0.53430   0.32950   0.00000  Uiso   1.00
O73    O     0.84380   0.42770   0.36050   0.00000  Uiso   1.00
O74    O     0.26460   0.38490   0.56580   0.00000  Uiso   1.00
O75    O     0.31470   0.54270   0.55960   0.00000  Uiso   1.00
O76    O     0.06420   0.47990   0.34480   0.00000  Uiso   1.00
O77    O     0.09190   0.63520   0.29850   0.00000  Uiso   1.00
O78    O     0.94610   0.31430   0.58740   0.00000  Uiso   1.00
O79    O     0.22480   0.57800   0.40040   0.00000  Uiso   1.00
O80    O     0.77390   0.33420   0.50380   0.00000  Uiso   1.00
O81    O     0.31090   0.45100   0.46500   0.00000  Uiso   1.00
O82    O     0.44430   0.59690   0.46850   0.00000  Uiso   1.00
O83    O     0.00000   0.31930   0.30920   0.00000  Uiso   1.00
O84    O     0.34770   0.28100   0.48110   0.00000  Uiso   1.00
O85    O     0.93150   0.30470   0.42510   0.00000  Uiso   1.00
O86    O     0.15410   0.35110   0.40970   0.00000  Uiso   1.00
O87    O     0.10410   0.28430   0.50940   0.00000  Uiso   1.00
O88    O     0.89860   0.18440   0.50780   0.00000  Uiso   1.00
Ni89   Ni    0.22656   0.65053   0.21163   0.00000  Uiso   1.00
O90    O     0.34450   0.66010   0.13370   0.00000  Uiso   1.00
H91    H     0.31060   0.65670   0.09860   0.00000  Uiso   1.00
H92    H     0.41990   0.64640   0.13880   0.00000  Uiso   1.00
O93    O     0.08970   0.59940   0.16340   0.00000  Uiso   1.00
H94    H     0.08770   0.54880   0.17390   0.00000  Uiso   1.00
H95    H     0.09990   0.59880   0.12660   0.00000  Uiso   1.00
N96    N     0.33830   0.71010   0.27090   0.00000  Uiso   1.00
N97    N     0.15730   0.76430   0.20200   0.00000  Uiso   1.00
O98    O     0.13730   0.89100   0.35440   0.00000  Uiso   1.00
O99    O     0.29980   0.92030   0.41520   0.00000  Uiso   1.00
H100   H     0.25300   0.95590   0.42610   0.00000  Uiso   1.00
O101   O     0.20430   0.04320   0.26330   0.00000  Uiso   1.00
O102   O     0.36220   0.96020   0.28670   0.00000  Uiso   1.00
C103   C     0.42800   0.67170   0.30540   0.00000  Uiso   1.00
H104   H     0.46150   0.62240   0.29290   0.00000  Uiso   1.00
C105   C     0.46990   0.70600   0.35920   0.00000  Uiso   1.00
H106   H     0.53810   0.68320   0.38040   0.00000  Uiso   1.00
C107   C     0.41170   0.77330   0.38160   0.00000  Uiso   1.00
H108   H     0.43440   0.79250   0.41950   0.00000  Uiso   1.00
C109   C     0.31770   0.81240   0.34640   0.00000  Uiso   1.00
C110   C     0.29040   0.78250   0.28940   0.00000  Uiso   1.00
C111   C     0.24660   0.87940   0.37330   0.00000  Uiso   1.00
C112   C     0.08030   0.78820   0.15460   0.00000  Uiso   1.00
H113   H     0.04540   0.74840   0.12880   0.00000  Uiso   1.00
C114   C     0.05490   0.86830   0.14510   0.00000  Uiso   1.00
H115   H     0.99880   0.88380   0.11410   0.00000  Uiso   1.00
C116   C     0.11130   0.92780   0.18090   0.00000  Uiso   1.00
H117   H     0.09600   0.98350   0.17290   0.00000  Uiso   1.00
C118   C     0.19260   0.90500   0.22970   0.00000  Uiso   1.00
C119   C     0.20910   0.82100   0.24010   0.00000  Uiso   1.00
C120   C     0.25900   0.97530   0.26340   0.00000  Uiso   1.00
W121   W     0.26167   0.97713   0.88486   0.00000  Uiso   1.00
W122   W     0.56476   0.90679   0.86394   0.00000  Uiso   1.00
W123   W     0.80382   0.93383   0.97757   0.00000  Uiso   1.00
W124   W     0.50155   0.12280   0.87017   0.00000  Uiso   1.00
W125   W     0.73626   0.14955   0.98660   0.00000  Uiso   1.00
W126   W     0.43130   0.21515   0.00592   0.00000  Uiso   1.00
O127   O     0.53320   0.08760   0.97480   0.00000  Uiso   1.00
O128   O     0.57930   0.93940   0.96930   0.00000  Uiso   1.00
O129   O     0.37380   0.98580   0.98400   0.00000  Uiso   1.00
O130   O     0.46390   0.99790   0.93570   0.00000  Uiso   1.00
O131   O     0.39270   0.91490   0.85650   0.00000  Uiso   1.00
O132   O     0.15110   0.96570   0.82950   0.00000  Uiso   1.00
O133   O     0.34380   0.07230   0.86050   0.00000  Uiso   1.00
O134   O     0.76460   0.11510   0.06580   0.00000  Uiso   1.00
O135   O     0.81470   0.95730   0.05960   0.00000  Uiso   1.00
O136   O     0.56420   0.02010   0.84480   0.00000  Uiso   1.00
O137   O     0.59190   0.86480   0.79850   0.00000  Uiso   1.00
O138   O     0.44610   0.18570   0.08740   0.00000  Uiso   1.00
O139   O     0.72480   0.92200   0.90040   0.00000  Uiso   1.00
O140   O     0.27390   0.16580   0.00380   0.00000  Uiso   1.00
O141   O     0.81090   0.04900   0.96500   0.00000  Uiso   1.00
O142   O     0.94430   0.90310   0.96850   0.00000  Uiso   1.00
O143   O     0.50000   0.18070   0.80920   0.00000  Uiso   1.00
O144   O     0.84770   0.21900   0.98110   0.00000  Uiso   1.00
O145   O     0.43150   0.19530   0.92510   0.00000  Uiso   1.00
O146   O     0.65410   0.14890   0.90970   0.00000  Uiso   1.00
O147   O     0.60410   0.21570   0.00940   0.00000  Uiso   1.00
O148   O     0.39860   0.31560   0.00780   0.00000  Uiso   1.00
Ni149  Ni    0.72656   0.84947   0.71163   0.00000  Uiso   1.00
O150   O     0.84450   0.83990   0.63370   0.00000  Uiso   1.00
H151   H     0.81060   0.84330   0.59860   0.00000  Uiso   1.00
H152   H     0.91990   0.85360   0.63880   0.00000  Uiso   1.00
O153   O     0.58970   0.90060   0.66340   0.00000  Uiso   1.00
H154   H     0.58770   0.95120   0.67390   0.00000  Uiso   1.00
H155   H     0.59990   0.90120   0.62660   0.00000  Uiso   1.00
N156   N     0.83830   0.78990   0.77090   0.00000  Uiso   1.00
N157   N     0.65730   0.73570   0.70200   0.00000  Uiso   1.00
O158   O     0.63730   0.60900   0.85440   0.00000  Uiso   1.00
O159   O     0.79980   0.57970   0.91520   0.00000  Uiso   1.00
H160   H     0.75300   0.54410   0.92610   0.00000  Uiso   1.00
O161   O     0.70430   0.45680   0.76330   0.00000  Uiso   1.00
O162   O     0.86220   0.53980   0.78670   0.00000  Uiso   1.00
C163   C     0.92800   0.82830   0.80540   0.00000  Uiso   1.00
H164   H     0.96150   0.87760   0.79290   0.00000  Uiso   1.00
C165   C     0.96990   0.79400   0.85920   0.00000  Uiso   1.00
H166   H     0.03810   0.81680   0.88040   0.00000  Uiso   1.00
C167   C     0.91170   0.72670   0.88160   0.00000  Uiso   1.00
H168   H     0.93440   0.70750   0.91950   0.00000  Uiso   1.00
C169   C     0.81770   0.68760   0.84640   0.00000  Uiso   1.00
C170   C     0.79040   0.71750   0.78940   0.00000  Uiso   1.00
C171   C     0.74660   0.62060   0.87330   0.00000  Uiso   1.00
C172   C     0.58030   0.71180   0.65460   0.00000  Uiso   1.00
H173   H     0.54540   0.75160   0.62880   0.00000  Uiso   1.00
C174   C     0.55490   0.63170   0.64510   0.00000  Uiso   1.00
H175   H     0.49880   0.61620   0.61410   0.00000  Uiso   1.00
C176   C     0.61130   0.57220   0.68090   0.00000  Uiso   1.00
H177   H     0.59600   0.51650   0.67290   0.00000  Uiso   1.00
C178   C     0.69260   0.59500   0.72970   0.00000  Uiso   1.00
C179   C     0.70910   0.67900   0.74010   0.00000  Uiso   1.00
C180   C     0.75900   0.52470   0.76340   0.00000  Uiso   1.00
W181   W     0.23833   0.47713   0.61514   0.00000  Uiso   1.00
W182   W     0.93524   0.40679   0.63606   0.00000  Uiso   1.00
W183   W     0.69618   0.43383   0.52243   0.00000  Uiso   1.00
W184   W     0.99845   0.62280   0.62983   0.00000  Uiso   1.00
W185   W     0.76374   0.64955   0.51340   0.00000  Uiso   1.00
W186   W     0.06870   0.71515   0.49408   0.00000  Uiso   1.00
O187   O     0.96680   0.58760   0.52520   0.00000  Uiso   1.00
O188   O     0.92070   0.43940   0.53070   0.00000  Uiso   1.00
O189   O     0.12620   0.48580   0.51600   0.00000  Uiso   1.00
O190   O     0.03610   0.49790   0.56430   0.00000  Uiso   1.00
O191   O     0.10730   0.41490   0.64350   0.00000  Uiso   1.00
O192   O     0.34890   0.46570   0.67050   0.00000  Uiso   1.00
O193   O     0.15620   0.57230   0.63950   0.00000  Uiso   1.00
O194   O     0.73540   0.61510   0.43420   0.00000  Uiso   1.00
O195   O     0.68530   0.45730   0.44040   0.00000  Uiso   1.00
O196   O     0.93580   0.52010   0.65520   0.00000  Uiso   1.00
O197   O     0.90810   0.36480   0.70150   0.00000  Uiso   1.00
O198   O     0.05390   0.68570   0.41260   0.00000  Uiso   1.00
O199   O     0.77520   0.42200   0.59960   0.00000  Uiso   1.00
O200   O     0.22610   0.66580   0.49620   0.00000  Uiso   1.00
O201   O     0.68910   0.54900   0.53500   0.00000  Uiso   1.00
O202   O     0.55570   0.40310   0.53150   0.00000  Uiso   1.00
O203   O     0.00000   0.68070   0.69080   0.00000  Uiso   1.00
O204   O     0.65230   0.71900   0.51890   0.00000  Uiso   1.00
O205   O     0.06850   0.69530   0.57490   0.00000  Uiso   1.00
O206   O     0.84590   0.64890   0.59030   0.00000  Uiso   1.00
O207   O     0.89590   0.71570   0.49060   0.00000  Uiso   1.00
O208   O     0.10140   0.81560   0.49220   0.00000  Uiso   1.00
Ni209  Ni    0.77344   0.34947   0.78837   0.00000  Uiso   1.00
O210   O     0.65550   0.33990   0.86630   0.00000  Uiso   1.00
H211   H     0.68940   0.34330   0.90140   0.00000  Uiso   1.00
H212   H     0.58010   0.35360   0.86120   0.00000  Uiso   1.00
O213   O     0.91030   0.40060   0.83660   0.00000  Uiso   1.00
H214   H     0.91230   0.45120   0.82610   0.00000  Uiso   1.00
H215   H     0.90010   0.40120   0.87340   0.00000  Uiso   1.00
N216   N     0.66170   0.28990   0.72910   0.00000  Uiso   1.00
N217   N     0.84270   0.23570   0.79800   0.00000  Uiso   1.00
O218   O     0.86270   0.10900   0.64560   0.00000  Uiso   1.00
O219   O     0.70020   0.07970   0.58480   0.00000  Uiso   1.00
H220   H     0.74700   0.04410   0.57390   0.00000  Uiso   1.00
O221   O     0.79570   0.95680   0.73670   0.00000  Uiso   1.00
O222   O     0.63780   0.03980   0.71330   0.00000  Uiso   1.00
C223   C     0.57200   0.32830   0.69460   0.00000  Uiso   1.00
H224   H     0.53850   0.37760   0.70710   0.00000  Uiso   1.00
C225   C     0.53010   0.29400   0.64080   0.00000  Uiso   1.00
H226   H     0.46190   0.31680   0.61960   0.00000  Uiso   1.00
C227   C     0.58830   0.22670   0.61840   0.00000  Uiso   1.00
H228   H     0.56560   0.20750   0.58050   0.00000  Uiso   1.00
C229   C     0.68230   0.18760   0.65360   0.00000  Uiso   1.00
C230   C     0.70960   0.21750   0.71060   0.00000  Uiso   1.00
C231   C     0.75340   0.12060   0.62670   0.00000  Uiso   1.00
C232   C     0.91970   0.21180   0.84540   0.00000  Uiso   1.00
H233   H     0.95460   0.25160   0.87120   0.00000  Uiso   1.00
C234   C     0.94510   0.13170   0.85490   0.00000  Uiso   1.00
H235   H     0.00120   0.11620   0.88590   0.00000  Uiso   1.00
C236   C     0.88870   0.07220   0.81910   0.00000  Uiso   1.00
H237   H     0.90400   0.01650   0.82710   0.00000  Uiso   1.00
C238   C     0.80740   0.09500   0.77030   0.00000  Uiso   1.00
C239   C     0.79090   0.17900   0.75990   0.00000  Uiso   1.00
C240   C     0.74100   0.02470   0.73660   0.00000  Uiso   1.00
P241   P     0.50000   0.00000   0.00000   0.00000  Uiso   1.00
P242   P     0.00000   0.50000   0.50000   0.00000  Uiso   1.00
loop_
_geom_bond_atom_site_label_1
_geom_bond_atom_site_label_2
_geom_bond_distance
_geom_bond_site_symmetry_2
_ccdc_geom_bond_type
W1     O9      2.480   .     S
W1     O10     2.432   .     S
W1     O11     1.901   .     S
W1     O12     1.683   .     S
W1     O13     1.883   1_545 S
W1     O134    1.897   .     S
W1     O135    1.889   1_545 S
W2     O8      2.442   .     S
W2     O16     1.878   1_545 S
W2     O17     1.680   .     S
W2     O19     1.889   .     S
W2     O138    1.866   .     S
W2     O11     1.877   .     S
W3     O8      2.445   .     S
W3     O15     1.895   1_554 S
W3     O21     1.882   1_545 S
W3     O22     1.640   .     S
W3     O140    1.881   .     S
W3     O19     1.900   .     S
W4     O7      2.440   .     S
W4     O23     1.669   .     S
W4     O25     1.912   .     S
W4     O26     1.876   .     S
W4     O13     1.902   .     S
W4     O16     1.899   .     S
W5     O7      2.427   .     S
W5     O14     1.884   1_554 S
W5     O24     1.666   .     S
W5     O27     1.899   1_554 S
W5     O21     1.897   .     S
W5     O26     1.899   .     S
W6     O7      2.468   1_556 S
W6     O18     1.904   .     S
W6     O20     1.891   .     S
W6     O28     1.660   .     S
W6     O25     1.863   1_556 S
W6     O27     1.882   .     S
O7     W6      2.468   1_554 S
O7     P241    1.577   1_565 S
O7     O129    1.777   1_554 S
O8     P241    1.512   .     S
O8     O10     1.705   .     S
O8     O129    1.660   1_544 S
O9     P241    1.415   .     S
O9     O10     1.542   .     S
O9     O127    1.777   1_554 S
O9     O128    1.660   1_544 S
O10    P241    1.482   .     S
O13    W1      1.883   1_565 S
O14    W5      1.884   1_556 S
O14    W121    1.897   .     S
O15    W3      1.895   1_556 S
O15    W121    1.889   1_545 S
O16    W2      1.878   1_565 S
O17    Ni29    2.563   .     S
O18    W122    1.866   .     S
O20    W123    1.881   .     S
O21    W3      1.882   1_565 S
O25    W6      1.863   1_554 S
O27    W5      1.899   1_556 S
Ni29   O30     2.274   .     S
Ni29   O33     1.963   .     S
Ni29   N36     1.991   .     S
Ni29   N37     1.990   .     S
Ni29   O101    1.955   .     S
O30    H31     0.853   .     S
O30    H32     0.851   .     S
O33    H34     0.851   .     S
O33    H35     0.851   .     S
N36    C43     1.355   .     S
N36    C50     1.359   .     S
N37    C52     1.368   .     S
N37    C59     1.352   .     S
O38    C51     1.250   .     S
O39    H40     0.820   .     S
O39    C51     1.261   .     S
O41    C60     1.247   .     S
O41    Ni89    1.955   .     S
O42    C60     1.230   .     S
C43    H44     0.929   .     S
C43    C45     1.385   .     S
C45    H46     0.930   1_455 S
C45    C47     1.375   .     S
H46    C45     0.930   1_655 S
C47    H48     0.929   .     S
C47    C49     1.400   .     S
C49    C50     1.391   .     S
C49    C51     1.489   .     S
C50    C59     1.506   .     S
C52    H53     0.930   .     S
C52    C54     1.335   .     S
C54    H55     0.930   .     S
C54    C56     1.372   .     S
C56    H57     0.929   .     S
C56    C58     1.412   .     S
C58    C60     1.519   .     S
C58    C59     1.385   .     S
W61    O69     2.480   .     S
W61    O70     2.432   .     S
W61    O71     1.901   .     S
W61    O72     1.683   .     S
W61    O73     1.883   .     S
W61    O194    1.897   .     S
W61    O195    1.889   .     S
W62    O68     2.442   .     S
W62    O76     1.878   .     S
W62    O77     1.680   .     S
W62    O79     1.889   .     S
W62    O198    1.866   .     S
W62    O71     1.877   1_455 S
W63    O68     2.445   .     S
W63    O75     1.895   .     S
W63    O81     1.882   .     S
W63    O82     1.640   .     S
W63    O200    1.881   .     S
W63    O79     1.900   .     S
W64    O67     2.440   .     S
W64    O83     1.669   .     S
W64    O85     1.912   1_455 S
W64    O86     1.876   .     S
W64    O73     1.902   1_455 S
W64    O76     1.899   .     S
W65    O67     2.427   .     S
W65    O74     1.884   .     S
W65    O84     1.666   .     S
W65    O87     1.899   .     S
W65    O81     1.897   .     S
W65    O86     1.899   .     S
W66    O67     2.468   1_655 S
W66    O78     1.904   .     S
W66    O80     1.891   .     S
W66    O88     1.660   .     S
W66    O85     1.863   .     S
W66    O87     1.882   1_655 S
O67    W66     2.468   1_455 S
O67    P242    1.577   .     S
O67    O189    1.777   .     S
O68    P242    1.512   .     S
O68    O70     1.705   1_455 S
O68    O189    1.660   .     S
O69    P242    1.415   1_655 S
O69    O70     1.542   .     S
O69    O187    1.777   .     S
O69    O188    1.660   .     S
O70    P242    1.482   1_655 S
O70    O68     1.705   1_655 S
O71    W62     1.877   1_655 S
O73    W64     1.902   1_655 S
O74    W181    1.897   .     S
O75    W181    1.889   .     S
O77    Ni89    2.563   .     S
O78    W182    1.866   .     S
O80    W183    1.881   .     S
O85    W64     1.912   1_655 S
O87    W66     1.882   1_455 S
Ni89   O90     2.274   .     S
Ni89   O93     1.963   .     S
Ni89   N96     1.991   .     S
Ni89   N97     1.990   .     S
O90    H91     0.853   .     S
O90    H92     0.851   .     S
O93    H94     0.851   .     S
O93    H95     0.851   .     S
N96    C103    1.355   .     S
N96    C110    1.359   .     S
N97    C112    1.368   .     S
N97    C119    1.352   .     S
O98    C111    1.250   .     S
O99    H100    0.820   .     S
O99    C111    1.261   .     S
O101   C120    1.247   1_545 S
O102   C120    1.230   .     S
C103   H104    0.929   .     S
C103   C105    1.385   .     S
C105   H106    0.930   .     S
C105   C107    1.375   .     S
C107   H108    0.929   .     S
C107   C109    1.400   .     S
C109   C110    1.391   .     S
C109   C111    1.489   .     S
C110   C119    1.506   .     S
C112   H113    0.930   .     S
C112   C114    1.335   .     S
C114   H115    0.930   1_455 S
C114   C116    1.372   .     S
H115   C114    0.930   1_655 S
C116   H117    0.929   .     S
C116   C118    1.412   .     S
C118   C120    1.519   .     S
C118   C119    1.385   .     S
C120   O101    1.247   1_565 S
W121   O129    2.480   .     S
W121   O130    2.432   .     S
W121   O131    1.901   .     S
W121   O132    1.683   .     S
W121   O133    1.883   1_565 S
W121   O15     1.889   1_565 S
W122   O128    2.442   .     S
W122   O136    1.878   1_565 S
W122   O137    1.680   .     S
W122   O139    1.889   .     S
W122   O131    1.877   .     S
W123   O128    2.445   .     S
W123   O135    1.895   1_556 S
W123   O141    1.882   1_565 S
W123   O142    1.640   .     S
W123   O139    1.900   .     S
W124   O127    2.440   .     S
W124   O143    1.669   .     S
W124   O145    1.912   .     S
W124   O146    1.876   .     S
W124   O133    1.902   .     S
W124   O136    1.899   .     S
W125   O127    2.427   .     S
W125   O134    1.884   1_556 S
W125   O144    1.666   .     S
W125   O147    1.899   1_556 S
W125   O141    1.897   .     S
W125   O146    1.899   .     S
W126   O127    2.468   1_554 S
W126   O138    1.904   .     S
W126   O140    1.891   .     S
W126   O148    1.660   .     S
W126   O145    1.863   1_554 S
W126   O147    1.882   .     S
O127   W126    2.468   1_556 S
O127   P241    1.577   1_556 S
O127   O9      1.777   1_556 S
O128   P241    1.512   1_566 S
O128   O130    1.705   .     S
O128   O9      1.660   1_566 S
O129   P241    1.415   1_566 S
O129   O130    1.542   .     S
O129   O7      1.777   1_556 S
O129   O8      1.660   1_566 S
O130   P241    1.482   1_566 S
O133   W121    1.883   1_545 S
O134   W125    1.884   1_554 S
O135   W123    1.895   1_554 S
O135   W1      1.889   1_565 S
O136   W122    1.878   1_545 S
O137   Ni149   2.563   .     S
O141   W123    1.882   1_545 S
O145   W126    1.863   1_556 S
O147   W125    1.899   1_554 S
Ni149  O150    2.274   .     S
Ni149  O153    1.963   .     S
Ni149  N156    1.991   .     S
Ni149  N157    1.990   .     S
Ni149  O221    1.955   .     S
O150   H151    0.853   .     S
O150   H152    0.851   .     S
O153   H154    0.851   .     S
O153   H155    0.851   .     S
N156   C163    1.355   .     S
N156   C170    1.359   .     S
N157   C172    1.368   .     S
N157   C179    1.352   .     S
O158   C171    1.250   .     S
O159   H160    0.820   .     S
O159   C171    1.261   .     S
O161   C180    1.247   .     S
O161   Ni209   1.955   .     S
O162   C180    1.230   .     S
C163   H164    0.929   .     S
C163   C165    1.385   .     S
C165   H166    0.930   1_655 S
C165   C167    1.375   .     S
H166   C165    0.930   1_455 S
C167   H168    0.929   .     S
C167   C169    1.400   .     S
C169   C170    1.391   .     S
C169   C171    1.489   .     S
C170   C179    1.506   .     S
C172   H173    0.930   .     S
C172   C174    1.335   .     S
C174   H175    0.930   .     S
C174   C176    1.372   .     S
C176   H177    0.929   .     S
C176   C178    1.412   .     S
C178   C180    1.519   .     S
C178   C179    1.385   .     S
W181   O189    2.480   .     S
W181   O190    2.432   .     S
W181   O191    1.901   .     S
W181   O192    1.683   .     S
W181   O193    1.883   .     S
W182   O188    2.442   .     S
W182   O196    1.878   .     S
W182   O197    1.680   .     S
W182   O199    1.889   .     S
W182   O191    1.877   1_655 S
W183   O188    2.445   .     S
W183   O195    1.895   .     S
W183   O201    1.882   .     S
W183   O202    1.640   .     S
W183   O199    1.900   .     S
W184   O187    2.440   .     S
W184   O203    1.669   1_655 S
W184   O205    1.912   1_655 S
W184   O206    1.876   .     S
W184   O193    1.902   1_655 S
W184   O196    1.899   .     S
W185   O187    2.427   .     S
W185   O194    1.884   .     S
W185   O204    1.666   .     S
W185   O207    1.899   .     S
W185   O201    1.897   .     S
W185   O206    1.899   .     S
W186   O187    2.468   1_455 S
W186   O198    1.904   .     S
W186   O200    1.891   .     S
W186   O208    1.660   .     S
W186   O205    1.863   .     S
W186   O207    1.882   1_455 S
O187   W186    2.468   1_655 S
O187   P242    1.577   1_655 S
O188   P242    1.512   1_655 S
O188   O190    1.705   1_655 S
O189   P242    1.415   .     S
O189   O190    1.542   .     S
O190   P242    1.482   .     S
O190   O188    1.705   1_455 S
O191   W182    1.877   1_455 S
O193   W184    1.902   1_455 S
O197   Ni209   2.563   .     S
O203   W184    1.669   1_455 S
O205   W184    1.912   1_455 S
O207   W186    1.882   1_655 S
Ni209  O210    2.274   .     S
Ni209  O213    1.963   .     S
Ni209  N216    1.991   .     S
Ni209  N217    1.990   .     S
O210   H211    0.853   .     S
O210   H212    0.851   .     S
O213   H214    0.851   .     S
O213   H215    0.851   .     S
N216   C223    1.355   .     S
N216   C230    1.359   .     S
N217   C232    1.368   .     S
N217   C239    1.352   .     S
O218   C231    1.250   .     S
O219   H220    0.820   .     S
O219   C231    1.261   .     S
O221   C240    1.247   1_565 S
O222   C240    1.230   .     S
C223   H224    0.929   .     S
C223   C225    1.385   .     S
C225   H226    0.930   .     S
C225   C227    1.375   .     S
C227   H228    0.929   .     S
C227   C229    1.400   .     S
C229   C230    1.391   .     S
C229   C231    1.489   .     S
C230   C239    1.506   .     S
C232   H233    0.930   .     S
C232   C234    1.335   .     S
C234   H235    0.930   1_655 S
C234   C236    1.372   .     S
H235   C234    0.930   1_455 S
C236   H237    0.929   .     S
C236   C238    1.412   .     S
C238   C240    1.519   .     S
C238   C239    1.385   .     S
C240   O221    1.247   1_545 S
P241   O7      1.577   1_545 S
P241   O127    1.577   1_554 S
P241   O128    1.512   1_544 S
P241   O129    1.415   1_544 S
P241   O130    1.482   1_544 S
P242   O187    1.577   1_455 S
P242   O188    1.512   1_455 S
P242   O69     1.415   1_455 S
P242   O70     1.482   1_455 S
