data_LISBIB_directopt
_audit_creation_date              2024-06-11
_audit_creation_method            'Materials Studio'
_symmetry_space_group_name_H-M    'P1'
_symmetry_Int_Tables_number       1
_symmetry_cell_setting            triclinic
loop_
_symmetry_equiv_pos_as_xyz
  x,y,z
_cell_length_a                    23.1181
_cell_length_b                    8.8477
_cell_length_c                    18.8039
_cell_angle_alpha                 90.0000
_cell_angle_beta                  90.0000
_cell_angle_gamma                 90.0000
loop_
_atom_site_label
_atom_site_type_symbol
_atom_site_fract_x
_atom_site_fract_y
_atom_site_fract_z
_atom_site_U_iso_or_equiv
_atom_site_adp_type
_atom_site_occupancy
S1     S     0.12831  -0.05673   0.89609   0.00000  Uiso   1.00
O2     O     0.22710   0.75497   0.95788   0.00000  Uiso   1.00
O3     O     0.34687  -0.01901   0.02776   0.00000  Uiso   1.00
H4     H     0.34868  -0.07675   0.07363   0.00000  Uiso   1.00
H5     H     0.35812   0.08396   0.04578   0.00000  Uiso   1.00
C6     C     0.23225   0.71490   0.88514   0.00000  Uiso   1.00
C7     C     0.21603   0.79882   0.81731   0.00000  Uiso   1.00
O8     O     0.15262   0.04226   0.97289   0.00000  Uiso   1.00
C9     C     0.16939   0.90058   0.81585   0.00000  Uiso   1.00
O10    O     0.07064   0.02214   0.87673   0.00000  Uiso   1.00
O11    O     0.24659   0.58378   0.88148   0.00000  Uiso   1.00
O12    O     0.10366   0.79407   0.92659   0.00000  Uiso   1.00
S13    S     0.64069   0.40467   0.89044   0.00000  Uiso   1.00
O14    O     0.76801   0.24496   0.95892   0.00000  Uiso   1.00
O15    O     0.84083   0.57160   0.04244   0.00000  Uiso   1.00
H16    H     0.84875   0.51659   0.08827   0.00000  Uiso   1.00
H17    H     0.83484   0.67594   0.06186   0.00000  Uiso   1.00
C18    C     0.75586   0.20095   0.88741   0.00000  Uiso   1.00
C19    C     0.74042   0.28519   0.81844   0.00000  Uiso   1.00
O20    O     0.65591   0.42216   0.98220   0.00000  Uiso   1.00
C21    C     0.68679   0.36116   0.81509   0.00000  Uiso   1.00
O22    O     0.61044   0.55704   0.87418   0.00000  Uiso   1.00
O23    O     0.74922   0.06609   0.88775   0.00000  Uiso   1.00
O24    O     0.58627   0.30293   0.88758   0.00000  Uiso   1.00
S25    S     0.87165   1.05749   0.39608   0.00000  Uiso   1.00
O26    O     0.77273   0.24531   0.45784   0.00000  Uiso   1.00
O27    O     0.65309   1.01841   0.52780   0.00000  Uiso   1.00
H28    H     0.65127   1.07531   0.57389   0.00000  Uiso   1.00
H29    H     0.64188   0.91510   0.54545   0.00000  Uiso   1.00
C30    C     0.76764   0.28546   0.38511   0.00000  Uiso   1.00
C31    C     0.78389   0.20161   0.31728   0.00000  Uiso   1.00
O32    O     0.84740   0.95845   0.47291   0.00000  Uiso   1.00
C33    C     0.83054   0.09986   0.31583   0.00000  Uiso   1.00
O34    O     0.92940   0.97899   0.37676   0.00000  Uiso   1.00
O35    O     0.75336   0.41663   0.38147   0.00000  Uiso   1.00
O36    O     0.89614   0.20691   0.42654   0.00000  Uiso   1.00
S37    S     0.35931   0.59501   0.39045   0.00000  Uiso   1.00
O38    O     0.23188   0.75528   0.45894   0.00000  Uiso   1.00
O39    O     0.15916   0.42867   0.54268   0.00000  Uiso   1.00
H40    H     0.15115   0.48425   0.58833   0.00000  Uiso   1.00
H41    H     0.16523   0.32461   0.56241   0.00000  Uiso   1.00
C42    C     0.24417   0.79929   0.38745   0.00000  Uiso   1.00
C43    C     0.25965   0.71505   0.31847   0.00000  Uiso   1.00
O44    O     0.34401   0.57839   0.48221   0.00000  Uiso   1.00
C45    C     0.31327   0.63900   0.31510   0.00000  Uiso   1.00
O46    O     0.38916   0.44204   0.37435   0.00000  Uiso   1.00
O47    O     0.25083   0.93415   0.38780   0.00000  Uiso   1.00
O48    O     0.41397   0.69580   0.38746   0.00000  Uiso   1.00
S49    S     0.85923  -0.09528   0.60953   0.00000  Uiso   1.00
O50    O     0.73191   0.74498   0.54104   0.00000  Uiso   1.00
O51    O     0.65909   0.07161   0.45751   0.00000  Uiso   1.00
H52    H     0.65116   0.01658   0.41170   0.00000  Uiso   1.00
H53    H     0.66508   0.17595   0.43808   0.00000  Uiso   1.00
C54    C     0.74406   0.70097   0.61255   0.00000  Uiso   1.00
C55    C     0.75950   0.78521   0.68152   0.00000  Uiso   1.00
O56    O     0.84400  -0.07782   0.51777   0.00000  Uiso   1.00
C57    C     0.81313   0.86119   0.68488   0.00000  Uiso   1.00
O58    O     0.88946   0.05713   0.62579   0.00000  Uiso   1.00
O59    O     0.75070   0.56611   0.61221   0.00000  Uiso   1.00
O60    O     0.91366   0.80304   0.61239   0.00000  Uiso   1.00
S61    S     0.37170   0.44327   0.60391   0.00000  Uiso   1.00
O62    O     0.27291   0.25497   0.54212   0.00000  Uiso   1.00
O63    O     0.15315   0.48099   0.47224   0.00000  Uiso   1.00
H64    H     0.15134   0.42325   0.42637   0.00000  Uiso   1.00
H65    H     0.14189   0.58396   0.45422   0.00000  Uiso   1.00
C66    C     0.26776   0.21490   0.61486   0.00000  Uiso   1.00
C67    C     0.28398   0.29882   0.68269   0.00000  Uiso   1.00
O68    O     0.34739   0.54226   0.52711   0.00000  Uiso   1.00
C69    C     0.33063   0.40058   0.68415   0.00000  Uiso   1.00
O70    O     0.42937   0.52214   0.62327   0.00000  Uiso   1.00
O71    O     0.25342   0.08378   0.61852   0.00000  Uiso   1.00
O72    O     0.39636   0.29407   0.57341   0.00000  Uiso   1.00
S73    S     0.14071   1.09501   0.10955   0.00000  Uiso   1.00
O74    O     0.26813   0.25528   0.04106   0.00000  Uiso   1.00
O75    O     0.34085   0.92867   0.95732   0.00000  Uiso   1.00
H76    H     0.34886   0.98425   0.91167   0.00000  Uiso   1.00
H77    H     0.33478   0.82461   0.93759   0.00000  Uiso   1.00
C78    C     0.25585   0.29929   0.11255   0.00000  Uiso   1.00
C79    C     0.24037   0.21505   0.18153   0.00000  Uiso   1.00
O80    O     0.15600   1.07839   0.01779   0.00000  Uiso   1.00
C81    C     0.18675   0.13899   0.18490   0.00000  Uiso   1.00
O82    O     0.11085   0.94204   0.12565   0.00000  Uiso   1.00
O83    O     0.24919   0.43415   0.11220   0.00000  Uiso   1.00
O84    O     0.08604   0.19580   0.11254   0.00000  Uiso   1.00
S85    S     0.62827   0.55747   0.10388   0.00000  Uiso   1.00
O86    O     0.72719   0.74529   0.04212   0.00000  Uiso   1.00
O87    O     0.84683   0.51836   0.97217   0.00000  Uiso   1.00
H88    H     0.84865   0.57522   0.92607   0.00000  Uiso   1.00
H89    H     0.85804   0.41504   0.95453   0.00000  Uiso   1.00
C90    C     0.73228   0.78546   0.11485   0.00000  Uiso   1.00
C91    C     0.71603   0.70159   0.18268   0.00000  Uiso   1.00
O92    O     0.65251   0.45844   0.02706   0.00000  Uiso   1.00
C93    C     0.66938   0.59985   0.18414   0.00000  Uiso   1.00
O94    O     0.57051   0.47899   0.12321   0.00000  Uiso   1.00
O95    O     0.74655   0.91660   0.11849   0.00000  Uiso   1.00
O96    O     0.60378   0.70690   0.07343   0.00000  Uiso   1.00
S97    S     0.87165   1.05747   0.10388   0.00000  Uiso   1.00
O98    O     0.77273   0.24529   0.04212   0.00000  Uiso   1.00
O99    O     0.65309   1.01835   0.97217   0.00000  Uiso   1.00
H100   H     0.65127   1.07521   0.92607   0.00000  Uiso   1.00
H101   H     0.64187   0.91504   0.95453   0.00000  Uiso   1.00
C102   C     0.76764   0.28546   0.11485   0.00000  Uiso   1.00
C103   C     0.78389   0.20159   0.18268   0.00000  Uiso   1.00
O104   O     0.84740   0.95843   0.02706   0.00000  Uiso   1.00
C105   C     0.83054   0.09985   0.18414   0.00000  Uiso   1.00
O106   O     0.92940   0.97897   0.12321   0.00000  Uiso   1.00
O107   O     0.75337   0.41660   0.11849   0.00000  Uiso   1.00
O108   O     0.89615   0.20689   0.07343   0.00000  Uiso   1.00
S109   S     0.35931   0.59501   0.10956   0.00000  Uiso   1.00
O110   O     0.23188   0.75527   0.04106   0.00000  Uiso   1.00
O111   O     0.15916   0.42866   0.95732   0.00000  Uiso   1.00
H112   H     0.15116   0.48424   0.91167   0.00000  Uiso   1.00
H113   H     0.16523   0.32461   0.93759   0.00000  Uiso   1.00
C114   C     0.24416   0.79928   0.11256   0.00000  Uiso   1.00
C115   C     0.25965   0.71505   0.18153   0.00000  Uiso   1.00
O116   O     0.34401   0.57839   0.01779   0.00000  Uiso   1.00
C117   C     0.31327   0.63899   0.18490   0.00000  Uiso   1.00
O118   O     0.38916   0.44204   0.12565   0.00000  Uiso   1.00
O119   O     0.25083   0.93414   0.11220   0.00000  Uiso   1.00
O120   O     0.41397   0.69580   0.11254   0.00000  Uiso   1.00
S121   S     0.12831  -0.05673   0.60391   0.00000  Uiso   1.00
O122   O     0.22710   0.75497   0.54212   0.00000  Uiso   1.00
O123   O     0.34687  -0.01901   0.47224   0.00000  Uiso   1.00
H124   H     0.34868  -0.07674   0.42637   0.00000  Uiso   1.00
H125   H     0.35812   0.08397   0.45422   0.00000  Uiso   1.00
C126   C     0.23225   0.71489   0.61486   0.00000  Uiso   1.00
C127   C     0.21603   0.79882   0.68269   0.00000  Uiso   1.00
O128   O     0.15262   0.04226   0.52711   0.00000  Uiso   1.00
C129   C     0.16939   0.90058   0.68415   0.00000  Uiso   1.00
O130   O     0.07064   0.02215   0.62327   0.00000  Uiso   1.00
O131   O     0.24659   0.58378   0.61852   0.00000  Uiso   1.00
O132   O     0.10365   0.79408   0.57341   0.00000  Uiso   1.00
S133   S     0.64069   0.40471   0.60953   0.00000  Uiso   1.00
O134   O     0.76801   0.24498   0.54104   0.00000  Uiso   1.00
O135   O     0.84083   0.57162   0.45751   0.00000  Uiso   1.00
H136   H     0.84875   0.51661   0.41169   0.00000  Uiso   1.00
H137   H     0.83484   0.67596   0.43809   0.00000  Uiso   1.00
C138   C     0.75585   0.20097   0.61255   0.00000  Uiso   1.00
C139   C     0.74042   0.28520   0.68152   0.00000  Uiso   1.00
O140   O     0.65591   0.42218   0.51777   0.00000  Uiso   1.00
C141   C     0.68679   0.36119   0.68488   0.00000  Uiso   1.00
O142   O     0.61045   0.55710   0.62579   0.00000  Uiso   1.00
O143   O     0.74921   0.06611   0.61221   0.00000  Uiso   1.00
O144   O     0.58627   0.30300   0.61240   0.00000  Uiso   1.00
S145   S     0.14071   1.09501   0.39044   0.00000  Uiso   1.00
O146   O     0.26813   0.25527   0.45894   0.00000  Uiso   1.00
O147   O     0.34085   0.92866   0.54268   0.00000  Uiso   1.00
H148   H     0.34886   0.98424   0.58833   0.00000  Uiso   1.00
H149   H     0.33478   0.82461   0.56241   0.00000  Uiso   1.00
C150   C     0.25585   0.29928   0.38744   0.00000  Uiso   1.00
C151   C     0.24037   0.21505   0.31847   0.00000  Uiso   1.00
O152   O     0.15600   1.07839   0.48221   0.00000  Uiso   1.00
C153   C     0.18675   0.13899   0.31510   0.00000  Uiso   1.00
O154   O     0.11085   0.94204   0.37435   0.00000  Uiso   1.00
O155   O     0.24919   0.43414   0.38780   0.00000  Uiso   1.00
O156   O     0.08604   0.19580   0.38746   0.00000  Uiso   1.00
S157   S     0.62827   0.55748   0.39608   0.00000  Uiso   1.00
O158   O     0.72718   0.74531   0.45785   0.00000  Uiso   1.00
O159   O     0.84683   0.51841   0.52779   0.00000  Uiso   1.00
H160   H     0.84865   0.57530   0.57388   0.00000  Uiso   1.00
H161   H     0.85805   0.41511   0.54544   0.00000  Uiso   1.00
C162   C     0.73228   0.78546   0.38511   0.00000  Uiso   1.00
C163   C     0.71603   0.70160   0.31728   0.00000  Uiso   1.00
O164   O     0.65251   0.45844   0.47291   0.00000  Uiso   1.00
C165   C     0.66938   0.59986   0.31583   0.00000  Uiso   1.00
O166   O     0.57051   0.47899   0.37676   0.00000  Uiso   1.00
O167   O     0.74655   0.91662   0.38147   0.00000  Uiso   1.00
O168   O     0.60377   0.70690   0.42654   0.00000  Uiso   1.00
S169   S     0.85924  -0.09534   0.89044   0.00000  Uiso   1.00
O170   O     0.73191   0.74496   0.95892   0.00000  Uiso   1.00
O171   O     0.65909   0.07160   0.04244   0.00000  Uiso   1.00
H172   H     0.65117   0.01661   0.08827   0.00000  Uiso   1.00
H173   H     0.66508   0.17595   0.06185   0.00000  Uiso   1.00
C174   C     0.74406   0.70095   0.88741   0.00000  Uiso   1.00
C175   C     0.75950   0.78519   0.81844   0.00000  Uiso   1.00
O176   O     0.84401  -0.07784   0.98220   0.00000  Uiso   1.00
C177   C     0.81313   0.86116   0.81509   0.00000  Uiso   1.00
O178   O     0.88949   0.05702   0.87418   0.00000  Uiso   1.00
O179   O     0.75070   0.56609   0.88775   0.00000  Uiso   1.00
O180   O     0.91364   0.80291   0.88758   0.00000  Uiso   1.00
S181   S     0.37170   0.44327   0.89609   0.00000  Uiso   1.00
O182   O     0.27291   0.25497   0.95788   0.00000  Uiso   1.00
O183   O     0.15315   0.48099   0.02776   0.00000  Uiso   1.00
H184   H     0.15133   0.42326   0.07363   0.00000  Uiso   1.00
H185   H     0.14189   0.58397   0.04578   0.00000  Uiso   1.00
C186   C     0.26776   0.21489   0.88514   0.00000  Uiso   1.00
C187   C     0.28398   0.29882   0.81731   0.00000  Uiso   1.00
O188   O     0.34739   0.54226   0.97289   0.00000  Uiso   1.00
C189   C     0.33063   0.40058   0.81585   0.00000  Uiso   1.00
O190   O     0.42937   0.52214   0.87673   0.00000  Uiso   1.00
O191   O     0.25342   0.08378   0.88148   0.00000  Uiso   1.00
O192   O     0.39636   0.29408   0.92659   0.00000  Uiso   1.00
Eu193  Eu    0.24982   0.00566  -0.00385   0.00000  Uiso   1.00
Eu194  Eu    0.74976   0.49458   0.00380   0.00000  Uiso   1.00
Eu195  Eu    0.75016  -0.00540   0.49616   0.00000  Uiso   1.00
Eu196  Eu    0.25019   0.50566   0.50385   0.00000  Uiso   1.00
Eu197  Eu    0.75016  -0.00542   0.00380   0.00000  Uiso   1.00
Eu198  Eu    0.25019   0.50566  -0.00385   0.00000  Uiso   1.00
Eu199  Eu    0.24982   0.00566   0.50385   0.00000  Uiso   1.00
Eu200  Eu    0.74976   0.49460   0.49616   0.00000  Uiso   1.00
C201   C     0.23906   0.75093   0.75000   0.00000  Uiso   1.00
H202   H     0.27287   0.66716   0.75000   0.00000  Uiso   1.00
C203   C     0.14761   0.95192   0.75000   0.00000  Uiso   1.00
C204   C     0.76614   0.24604   0.74998   0.00000  Uiso   1.00
H205   H     0.80463   0.17753   0.74998   0.00000  Uiso   1.00
C206   C     0.66204   0.39738   0.74999   0.00000  Uiso   1.00
C207   C     0.76088   0.24957   0.24998   0.00000  Uiso   1.00
H208   H     0.72713   0.33350   0.24998   0.00000  Uiso   1.00
C209   C     0.85231   0.04849   0.24998   0.00000  Uiso   1.00
C210   C     0.23398   0.75437   0.25000   0.00000  Uiso   1.00
H211   H     0.19557   0.82315   0.25000   0.00000  Uiso   1.00
C212   C     0.33805   0.60290   0.25000   0.00000  Uiso   1.00
C213   C     0.73378   0.74605   0.74998   0.00000  Uiso   1.00
H214   H     0.69529   0.67754   0.74998   0.00000  Uiso   1.00
C215   C     0.83788   0.89738   0.74998   0.00000  Uiso   1.00
C216   C     0.26096   0.25093   0.75000   0.00000  Uiso   1.00
H217   H     0.22715   0.16716   0.75000   0.00000  Uiso   1.00
C218   C     0.35240   0.45192   0.75000   0.00000  Uiso   1.00
C219   C     0.26603   0.25437   0.25000   0.00000  Uiso   1.00
H220   H     0.30445   0.32315   0.25000   0.00000  Uiso   1.00
C221   C     0.16196   0.10290   0.25000   0.00000  Uiso   1.00
C222   C     0.73903   0.74957   0.24998   0.00000  Uiso   1.00
H223   H     0.77278   0.83350   0.24998   0.00000  Uiso   1.00
C224   C     0.64761   0.54848   0.24998   0.00000  Uiso   1.00
H225   H     0.38026   0.54985   0.25000   0.00000  Uiso   1.00
H226   H     0.61051   0.47412   0.24998   0.00000  Uiso   1.00
H227   H     0.11050   1.02622   0.75000   0.00000  Uiso   1.00
H228   H     0.61983   0.45038   0.74999   0.00000  Uiso   1.00
H229   H     0.88941  -0.02587   0.24998   0.00000  Uiso   1.00
H230   H     0.88009   0.95038   0.74998   0.00000  Uiso   1.00
H231   H     0.38951   0.52622   0.75000   0.00000  Uiso   1.00
H232   H     0.11975   0.04985   0.25000   0.00000  Uiso   1.00
loop_
_geom_bond_atom_site_label_1
_geom_bond_atom_site_label_2
_geom_bond_distance
_geom_bond_site_symmetry_2
_ccdc_geom_bond_type
S1     O8      1.780   .     S
S1     O10     1.548   .     D
S1     C9      1.822   1_545 S
S1     O12     1.548   1_545 D
O2     C6      1.418   .     S
O2     Eu198   2.381   1_556 S
O2     Eu193   2.390   1_566 S
O3     Eu193   2.331   .     S
O3     H4      1.003   .     S
O3     H5      1.006   .     S
C6     C7      1.523   .     S
C6     O11     1.208   .     D
C7     C201    1.437   .     A
C7     C9      1.405   .     A
O8     Eu193   2.312   1_556 S
C9     C203    1.412   .     A
C9     S1      1.822   1_565 S
O11    Eu198   2.266   1_556 S
O12    S1      1.548   1_565 D
S13    O20     1.768   .     S
S13    O22     1.549   .     D
S13    C21     1.814   .     S
S13    O24     1.548   .     D
O14    C18     1.428   .     S
O14    Eu197   2.406   1_556 S
O14    Eu194   2.402   1_556 S
O15    Eu194   2.329   .     S
O15    H16     1.006   .     S
O15    H17     1.002   .     S
C18    C19     1.538   .     S
C18    O23     1.203   .     D
C19    C204    1.460   .     A
C19    C21     1.412   .     A
O20    Eu194   2.298   1_556 S
C21    C206    1.389   .     A
O23    Eu197   2.272   1_556 S
S25    O32     1.780   .     S
S25    O34     1.548   .     D
S25    C33     1.822   1_565 S
S25    O36     1.548   1_565 D
O26    C30     1.418   .     S
O26    Eu200   2.380   .     S
O26    Eu195   2.390   .     S
O27    Eu195   2.331   1_565 S
O27    H28     1.003   .     S
O27    H29     1.006   .     S
C30    C31     1.523   .     S
C30    O35     1.208   .     D
C31    C207    1.437   .     A
C31    C33     1.405   .     A
O32    Eu195   2.312   1_565 S
C33    C209    1.412   .     A
C33    S25     1.822   1_545 S
O35    Eu200   2.266   .     S
O36    S25     1.548   1_545 D
S37    O44     1.768   .     S
S37    O46     1.549   .     D
S37    C45     1.814   .     S
S37    O48     1.548   .     D
O38    C42     1.428   .     S
O38    Eu199   2.407   1_565 S
O38    Eu196   2.402   .     S
O39    Eu196   2.329   .     S
O39    H40     1.006   .     S
O39    H41     1.002   .     S
C42    C43     1.538   .     S
C42    O47     1.203   .     D
C43    C210    1.460   .     A
C43    C45     1.412   .     A
O44    Eu196   2.299   .     S
C45    C212    1.389   .     A
O47    Eu199   2.272   1_565 S
S49    O56     1.768   .     S
S49    O58     1.549   .     D
S49    C57     1.814   1_545 S
S49    O60     1.548   1_545 D
O50    C54     1.428   .     S
O50    Eu200   2.406   .     S
O50    Eu195   2.402   1_565 S
O51    Eu195   2.329   .     S
O51    H52     1.006   .     S
O51    H53     1.002   .     S
C54    C55     1.538   .     S
C54    O59     1.203   .     D
C55    C213    1.460   .     A
C55    C57     1.412   .     A
O56    Eu195   2.298   .     S
C57    C215    1.389   .     A
C57    S49     1.814   1_565 S
O59    Eu200   2.272   .     S
O60    S49     1.548   1_565 D
S61    O68     1.780   .     S
S61    O70     1.548   .     D
S61    C69     1.822   .     S
S61    O72     1.548   .     D
O62    C66     1.418   .     S
O62    Eu199   2.381   .     S
O62    Eu196   2.390   .     S
O63    Eu196   2.331   .     S
O63    H64     1.003   .     S
O63    H65     1.006   .     S
C66    C67     1.523   .     S
C66    O71     1.208   .     D
C67    C216    1.437   .     A
C67    C69     1.405   .     A
O68    Eu196   2.312   .     S
C69    C218    1.412   .     A
O71    Eu199   2.266   .     S
S73    O80     1.768   .     S
S73    O82     1.549   .     D
S73    C81     1.814   1_565 S
S73    O84     1.548   1_565 D
O74    C78     1.428   .     S
O74    Eu198   2.407   .     S
O74    Eu193   2.402   .     S
O75    Eu193   2.329   1_566 S
O75    H76     1.006   .     S
O75    H77     1.002   .     S
C78    C79     1.538   .     S
C78    O83     1.203   .     D
C79    C219    1.460   .     A
C79    C81     1.412   .     A
O80    Eu193   2.299   1_565 S
C81    C221    1.389   .     A
C81    S73     1.814   1_545 S
O83    Eu198   2.272   .     S
O84    S73     1.548   1_545 D
S85    O92     1.780   .     S
S85    O94     1.548   .     D
S85    C93     1.822   .     S
S85    O96     1.548   .     D
O86    C90     1.418   .     S
O86    Eu197   2.380   1_565 S
O86    Eu194   2.390   .     S
O87    Eu194   2.331   1_556 S
O87    H88     1.003   .     S
O87    H89     1.006   .     S
C90    C91     1.523   .     S
C90    O95     1.208   .     D
C91    C222    1.437   .     A
C91    C93     1.405   .     A
O92    Eu194   2.312   .     S
C93    C224    1.412   .     A
O95    Eu197   2.266   1_565 S
S97    O104    1.780   .     S
S97    O106    1.548   .     D
S97    C105    1.822   1_565 S
S97    O108    1.548   1_565 D
O98    C102    1.418   .     S
O98    Eu194   2.380   .     S
O98    Eu197   2.390   .     S
O99    Eu197   2.331   1_566 S
O99    H100    1.003   .     S
O99    H101    1.006   .     S
C102   C103    1.523   .     S
C102   O107    1.208   .     D
C103   C207    1.437   .     A
C103   C105    1.405   .     A
O104   Eu197   2.312   1_565 S
C105   C209    1.412   .     A
C105   S97     1.822   1_545 S
O107   Eu194   2.266   .     S
O108   S97     1.548   1_545 D
S109   O116    1.768   .     S
S109   O118    1.549   .     D
S109   C117    1.814   .     S
S109   O120    1.548   .     D
O110   C114    1.428   .     S
O110   Eu193   2.407   1_565 S
O110   Eu198   2.402   .     S
O111   Eu198   2.329   1_556 S
O111   H112    1.006   .     S
O111   H113    1.002   .     S
C114   C115    1.538   .     S
C114   O119    1.203   .     D
C115   C210    1.460   .     A
C115   C117    1.412   .     A
O116   Eu198   2.299   .     S
C117   C212    1.389   .     A
O119   Eu193   2.272   1_565 S
S121   O128    1.780   .     S
S121   O130    1.548   .     D
S121   C129    1.822   1_545 S
S121   O132    1.548   1_545 D
O122   C126    1.418   .     S
O122   Eu196   2.381   .     S
O122   Eu199   2.390   1_565 S
O123   Eu199   2.331   .     S
O123   H124    1.003   .     S
O123   H125    1.006   .     S
C126   C127    1.523   .     S
C126   O131    1.208   .     D
C127   C201    1.437   .     A
C127   C129    1.405   .     A
O128   Eu199   2.312   .     S
C129   C203    1.412   .     A
C129   S121    1.822   1_565 S
O131   Eu196   2.266   .     S
O132   S121    1.548   1_565 D
S133   O140    1.768   .     S
S133   O142    1.549   .     D
S133   C141    1.814   .     S
S133   O144    1.548   .     D
O134   C138    1.428   .     S
O134   Eu195   2.406   .     S
O134   Eu200   2.402   .     S
O135   Eu200   2.329   .     S
O135   H136    1.006   .     S
O135   H137    1.002   .     S
C138   C139    1.538   .     S
C138   O143    1.203   .     D
C139   C204    1.460   .     A
C139   C141    1.412   .     A
O140   Eu200   2.298   .     S
C141   C206    1.389   .     A
O143   Eu195   2.272   .     S
S145   O152    1.768   .     S
S145   O154    1.549   .     D
S145   C153    1.814   1_565 S
S145   O156    1.548   1_565 D
O146   C150    1.428   .     S
O146   Eu196   2.407   .     S
O146   Eu199   2.402   .     S
O147   Eu199   2.329   1_565 S
O147   H148    1.006   .     S
O147   H149    1.002   .     S
C150   C151    1.538   .     S
C150   O155    1.203   .     D
C151   C219    1.460   .     A
C151   C153    1.412   .     A
O152   Eu199   2.299   1_565 S
C153   C221    1.389   .     A
C153   S145    1.814   1_545 S
O155   Eu196   2.272   .     S
O156   S145    1.548   1_545 D
S157   O164    1.780   .     S
S157   O166    1.548   .     D
S157   C165    1.822   .     S
S157   O168    1.548   .     D
O158   C162    1.418   .     S
O158   Eu195   2.380   1_565 S
O158   Eu200   2.390   .     S
O159   Eu200   2.331   .     S
O159   H160    1.003   .     S
O159   H161    1.006   .     S
C162   C163    1.523   .     S
C162   O167    1.208   .     D
C163   C222    1.437   .     A
C163   C165    1.405   .     A
O164   Eu200   2.312   .     S
C165   C224    1.412   .     A
O167   Eu195   2.266   1_565 S
S169   O176    1.768   .     S
S169   O178    1.549   .     D
S169   C177    1.814   1_545 S
S169   O180    1.548   1_545 D
O170   C174    1.428   .     S
O170   Eu194   2.406   1_556 S
O170   Eu197   2.402   1_566 S
O171   Eu197   2.329   .     S
O171   H172    1.006   .     S
O171   H173    1.002   .     S
C174   C175    1.538   .     S
C174   O179    1.203   .     D
C175   C213    1.460   .     A
C175   C177    1.412   .     A
O176   Eu197   2.298   1_556 S
C177   C215    1.389   .     A
C177   S169    1.814   1_565 S
O179   Eu194   2.272   1_556 S
O180   S169    1.548   1_565 D
S181   O188    1.780   .     S
S181   O190    1.548   .     D
S181   C189    1.822   .     S
S181   O192    1.548   .     D
O182   C186    1.418   .     S
O182   Eu193   2.381   1_556 S
O182   Eu198   2.390   1_556 S
O183   Eu198   2.331   .     S
O183   H184    1.003   .     S
O183   H185    1.006   .     S
C186   C187    1.523   .     S
C186   O191    1.208   .     D
C187   C216    1.437   .     A
C187   C189    1.405   .     A
O188   Eu198   2.312   1_556 S
C189   C218    1.412   .     A
O191   Eu193   2.266   1_556 S
Eu193  O75     2.329   1_544 S
Eu193  O8      2.312   1_554 S
Eu193  O80     2.299   1_545 S
Eu193  O2      2.390   1_544 S
Eu193  O182    2.381   1_554 S
Eu193  O110    2.407   1_545 S
Eu193  O191    2.266   1_554 S
Eu193  O119    2.272   1_545 S
Eu194  O87     2.331   1_554 S
Eu194  O20     2.298   1_554 S
Eu194  O14     2.402   1_554 S
Eu194  O170    2.406   1_554 S
Eu194  O179    2.272   1_554 S
Eu195  O27     2.331   1_545 S
Eu195  O32     2.312   1_545 S
Eu195  O50     2.402   1_545 S
Eu195  O158    2.380   1_545 S
Eu195  O167    2.266   1_545 S
Eu197  O99     2.331   1_544 S
Eu197  O104    2.312   1_545 S
Eu197  O176    2.298   1_554 S
Eu197  O170    2.402   1_544 S
Eu197  O86     2.380   1_545 S
Eu197  O14     2.406   1_554 S
Eu197  O95     2.266   1_545 S
Eu197  O23     2.272   1_554 S
Eu198  O111    2.329   1_554 S
Eu198  O188    2.312   1_554 S
Eu198  O182    2.390   1_554 S
Eu198  O2      2.381   1_554 S
Eu198  O11     2.266   1_554 S
Eu199  O147    2.329   1_545 S
Eu199  O152    2.299   1_545 S
Eu199  O122    2.390   1_545 S
Eu199  O38     2.407   1_545 S
Eu199  O47     2.272   1_545 S
C201   H202    1.077   .     S
C203   H227    1.081   .     S
C204   H205    1.077   .     S
C206   H228    1.083   .     S
C207   H208    1.077   .     S
C209   H229    1.081   .     S
C210   H211    1.077   .     S
C212   H225    1.083   .     S
C213   H214    1.077   .     S
C215   H230    1.083   .     S
C216   H217    1.077   .     S
C218   H231    1.081   .     S
C219   H220    1.077   .     S
C221   H232    1.083   .     S
C222   H223    1.077   .     S
C224   H226    1.081   .     S
