data_LOHHUO_directopt\(2)
_audit_creation_date              2024-06-12
_audit_creation_method            'Materials Studio'
_symmetry_space_group_name_H-M    'P1'
_symmetry_Int_Tables_number       1
_symmetry_cell_setting            triclinic
loop_
_symmetry_equiv_pos_as_xyz
  x,y,z
_cell_length_a                    9.8950
_cell_length_b                    10.8160
_cell_length_c                    15.5520
_cell_angle_alpha                 97.7400
_cell_angle_beta                  103.4200
_cell_angle_gamma                 111.6900
loop_
_atom_site_label
_atom_site_type_symbol
_atom_site_fract_x
_atom_site_fract_y
_atom_site_fract_z
_atom_site_U_iso_or_equiv
_atom_site_adp_type
_atom_site_occupancy
Bi1    Bi    0.32276   0.89805   0.10056   0.00000  Uiso   1.00
Bi2    Bi    1.04823   0.19881   0.89195   0.00000  Uiso   1.00
O3     O     0.22941   0.17571   0.85108   0.00000  Uiso   1.00
O5     O     0.17754   0.83724   0.18322   0.00000  Uiso   1.00
O6     O     0.14637   0.41179   0.89526   0.00000  Uiso   1.00
O7     O     1.04964   0.26944   0.77015   0.00000  Uiso   1.00
O8     O     0.46259   0.97876   0.79454   0.00000  Uiso   1.00
O9     O     0.34062   0.93125   0.90031   0.00000  Uiso   1.00
C10    C     0.11669   0.39416   0.81059   0.00000  Uiso   1.00
C11    C     0.35091   0.89288   0.82584   0.00000  Uiso   1.00
C12    C     0.15007   0.50699   0.76400   0.00000  Uiso   1.00
C13    C     0.10242   0.47899   0.66847   0.00000  Uiso   1.00
H14    H     1.04788   0.37344   0.62971   0.00000  Uiso   1.00
C15    C     0.12339   0.58667   0.62409   0.00000  Uiso   1.00
C16    C     0.20496   0.72265   0.67622   0.00000  Uiso   1.00
H17    H     0.22662   0.80614   0.64246   0.00000  Uiso   1.00
C18    C     0.25497   0.75154   0.77157   0.00000  Uiso   1.00
C19    C     0.22400   0.64354   0.81498   0.00000  Uiso   1.00
H20    H     0.26326   0.66616   0.88852   0.00000  Uiso   1.00
N21    N     0.06222   0.56136   0.52688   0.00000  Uiso   1.00
O22    O     0.99872   0.90269   0.87527   0.00000  Uiso   1.00
O23    O     0.96976   1.03118   0.77456   0.00000  Uiso   1.00
O24    O     0.81433   0.39826   0.78380   0.00000  Uiso   1.00
O25    O     0.70402   0.27717   0.63639   0.00000  Uiso   1.00
H26    H     0.69026   0.19356   0.66195   0.00000  Uiso   1.00
C27    C     0.95601   0.90678   0.79591   0.00000  Uiso   1.00
C28    C     0.77468   0.39982   0.70391   0.00000  Uiso   1.00
C29    C     0.80062   0.53153   0.67903   0.00000  Uiso   1.00
C30    C     0.75646   0.53436   0.58780   0.00000  Uiso   1.00
H31    H     0.70785   0.43921   0.53635   0.00000  Uiso   1.00
C32    C     0.84207   0.78098   0.63039   0.00000  Uiso   1.00
H33    H     0.85503   0.87631   0.61115   0.00000  Uiso   1.00
C34    C     0.88892   0.77971   0.72285   0.00000  Uiso   1.00
C35    C     0.86670   0.65445   0.74617   0.00000  Uiso   1.00
H36    H     0.89874   0.65239   0.81702   0.00000  Uiso   1.00
C37    C     0.77295   0.65772   0.56258   0.00000  Uiso   1.00
N38    N     0.71294   0.65588   0.46872   0.00000  Uiso   1.00
N39    N     0.58868   0.53771   0.41020   0.00000  Uiso   1.00
O40    O     0.41530   0.66323   0.04527   0.00000  Uiso   1.00
O41    O     0.42887   0.79013   0.17866   0.00000  Uiso   1.00
O42    O     0.34127   0.09227   0.16993   0.00000  Uiso   1.00
O43    O     0.33773   0.16143   1.03801   0.00000  Uiso   1.00
C44    C     0.43869   0.67893   0.12727   0.00000  Uiso   1.00
C45    C     0.36421   0.19305   0.12029   0.00000  Uiso   1.00
C46    C     0.47156   0.57733   0.17258   0.00000  Uiso   1.00
C47    C     0.53905   0.61254   0.26757   0.00000  Uiso   1.00
H48    H     0.57652   0.71649   0.30644   0.00000  Uiso   1.00
C49    C     0.54462   0.51077   0.31316   0.00000  Uiso   1.00
C50    C     0.48590   0.37478   0.26387   0.00000  Uiso   1.00
H51    H     0.48772   0.29687   0.30064   0.00000  Uiso   1.00
C52    C     0.42471   0.33845   0.16903   0.00000  Uiso   1.00
C53    C     0.41976   0.44084   0.12315   0.00000  Uiso   1.00
H54    H     0.36816   0.41311   0.04994   0.00000  Uiso   1.00
Bi55   Bi    0.67723   0.10196   0.89945   0.00000  Uiso   1.00
Bi56   Bi   -0.04825   0.80119   0.10804   0.00000  Uiso   1.00
O57    O     0.77053   0.82425   0.14889   0.00000  Uiso   1.00
O59    O     0.82245   0.16279   0.81678   0.00000  Uiso   1.00
O60    O     0.85364   0.58822   0.10472   0.00000  Uiso   1.00
O61    O    -0.04966   0.73056   0.22984   0.00000  Uiso   1.00
O62    O     0.53739   0.02124   0.20548   0.00000  Uiso   1.00
O63    O     0.65937   0.06869   0.09970   0.00000  Uiso   1.00
C64    C     0.88330   0.60585   0.18940   0.00000  Uiso   1.00
C65    C     0.64908   0.10709   0.17417   0.00000  Uiso   1.00
C66    C     0.84991   0.49301   0.23597   0.00000  Uiso   1.00
C67    C     0.89759   0.52101   0.33151   0.00000  Uiso   1.00
H68    H    -0.04786   0.62656   0.37027   0.00000  Uiso   1.00
C69    C     0.87665   0.41335   0.37589   0.00000  Uiso   1.00
C70    C     0.79508   0.27736   0.32377   0.00000  Uiso   1.00
H71    H     0.77345   0.19388   0.35754   0.00000  Uiso   1.00
C72    C     0.74503   0.24845   0.22842   0.00000  Uiso   1.00
C73    C     0.77597   0.35644   0.18500   0.00000  Uiso   1.00
H74    H     0.73673   0.33382   0.11145   0.00000  Uiso   1.00
N75    N     0.93783   0.43867   0.47310   0.00000  Uiso   1.00
O76    O     0.00133   0.09732   0.12473   0.00000  Uiso   1.00
O77    O     0.03016  -0.03119   0.22543   0.00000  Uiso   1.00
O78    O     0.18568   0.60177   0.21622   0.00000  Uiso   1.00
O79    O     0.29602   0.72283   0.36363   0.00000  Uiso   1.00
H80    H     0.30981   0.80645   0.33807   0.00000  Uiso   1.00
C81    C     0.04398   0.09322   0.20409   0.00000  Uiso   1.00
C82    C     0.22535   0.60019   0.29611   0.00000  Uiso   1.00
C83    C     0.19940   0.46848   0.32098   0.00000  Uiso   1.00
C84    C     0.24358   0.46565   0.41221   0.00000  Uiso   1.00
H85    H     0.29220   0.56080   0.46366   0.00000  Uiso   1.00
C86    C     0.15794   0.21902   0.36961   0.00000  Uiso   1.00
H87    H     0.14497   0.12368   0.38886   0.00000  Uiso   1.00
C88    C     0.11108   0.22029   0.27715   0.00000  Uiso   1.00
C89    C     0.13331   0.34555   0.25384   0.00000  Uiso   1.00
H90    H     0.10128   0.34761   0.18299   0.00000  Uiso   1.00
C91    C     0.22707   0.34229   0.43742   0.00000  Uiso   1.00
N92    N     0.28705   0.34412   0.53128   0.00000  Uiso   1.00
N93    N     0.41133   0.46228   0.58980   0.00000  Uiso   1.00
O94    O     0.58464   0.33674   0.95473   0.00000  Uiso   1.00
O95    O     0.57113   0.20988   0.82134   0.00000  Uiso   1.00
O96    O     0.65869   0.90772   0.83007   0.00000  Uiso   1.00
O97    O     0.66214   0.83854  -0.03801   0.00000  Uiso   1.00
C98    C     0.56129   0.32107   0.87274   0.00000  Uiso   1.00
C99    C     0.63574   0.80693   0.87971   0.00000  Uiso   1.00
C100   C     0.52844   0.42267   0.82743   0.00000  Uiso   1.00
C101   C     0.46095   0.38746   0.73245   0.00000  Uiso   1.00
H102   H     0.42349   0.28352   0.69358   0.00000  Uiso   1.00
C103   C     0.45538   0.48923   0.68684   0.00000  Uiso   1.00
C104   C     0.51409   0.62521   0.73614   0.00000  Uiso   1.00
H105   H     0.51224   0.70312   0.69936   0.00000  Uiso   1.00
C106   C     0.57527   0.66154   0.83097   0.00000  Uiso   1.00
C107   C     0.58026   0.55917   0.87686   0.00000  Uiso   1.00
H108   H     0.63190   0.58690   0.95007   0.00000  Uiso   1.00
H109   H     0.10893   0.64122   0.49704   0.00000  Uiso   1.00
H110   H     0.75832   0.74359   0.44518   0.00000  Uiso   1.00
H111   H     0.53127   0.45797   0.43706   0.00000  Uiso   1.00
H112   H     0.89109   0.35884   0.50294   0.00000  Uiso   1.00
H113   H     0.24163   0.25642   0.55482   0.00000  Uiso   1.00
H114   H     0.46877   0.54200   0.56294   0.00000  Uiso   1.00
loop_
_geom_bond_atom_site_label_1
_geom_bond_atom_site_label_2
_geom_bond_distance
_geom_bond_site_symmetry_2
_ccdc_geom_bond_type
Bi1    O5      2.130   .     S
Bi1    O41     2.153   .     S
Bi1    O42     2.150   1_565 S
Bi1    O62     2.159   1_565 S
Bi2    O7      2.137   .     S
Bi2    O59     2.129   .     S
Bi2    O3      2.121   1_655 S
Bi2    O6      2.132   1_655 S
Bi2    O23     2.152   1_545 S
O3     Bi2     2.121   1_455 S
O5     Bi56    2.129   .     S
O6     C10     1.252   .     D
O6     Bi2     2.132   1_455 S
O7     C10     1.254   1_655 D
O8     C11     1.391   .     S
O8     Bi55    2.159   1_565 S
O9     C11     1.217   .     D
C10    C12     1.475   .     S
C10    O7      1.254   1_455 D
C11    C18     1.469   .     S
C12    C13     1.403   .     D
C12    C19     1.401   .     S
C13    C15     1.407   .     S
C13    H14     1.080   1_455 D
H14    C13     1.080   1_655 D
C15    C16     1.403   .     D
C15    N21     1.438   .     S
C16    H17     1.083   .     S
C16    C18     1.401   .     S
C18    C19     1.399   .     D
C19    H20     1.080   .     S
N21    H109    1.043   .     S
N21    N75     1.411   1_455 S
O22    C27     1.221   .     D
O23    C27     1.395   .     S
O23    Bi2     2.152   1_565 S
O24    C28     1.217   .     D
O25    H26     1.013   .     S
O25    C28     1.396   .     S
C27    C34     1.475   .     S
C28    C29     1.473   .     S
C29    C30     1.392   .     D
C29    C35     1.397   .     S
C30    H31     1.079   .     S
C30    C37     1.404   .     S
C32    H33     1.083   .     S
C32    C34     1.408   .     S
C32    C37     1.403   .     D
C34    C35     1.402   .     D
C35    H36     1.079   .     S
C37    N38     1.437   .     S
N38    N39     1.407   .     S
N38    H110    1.044   .     S
N39    C49     1.426   .     S
N39    H111    1.042   .     S
O40    C44     1.218   .     D
O41    C44     1.399   .     S
O42    C45     1.400   .     S
O42    Bi1     2.150   1_545 S
O43    C45     1.218   1_556 S
C44    C46     1.475   .     S
C45    C52     1.476   .     S
C45    O43     1.218   1_554 S
C46    C47     1.406   .     S
C46    C53     1.409   .     D
C47    H48     1.082   .     S
C47    C49     1.398   .     D
C49    C50     1.395   .     S
C50    H51     1.083   .     S
C50    C52     1.396   .     D
C52    C53     1.405   .     S
C53    H54     1.083   .     S
Bi55   O59     2.130   .     S
Bi55   O95     2.153   .     S
Bi55   O8      2.159   1_545 S
Bi55   O96     2.150   1_545 S
Bi56   O61     2.137   .     S
Bi56   O57     2.121   1_455 S
Bi56   O60     2.131   1_455 D
Bi56   O77     2.152   1_565 S
O57    Bi56    2.121   1_655 S
O60    C64     1.252   .     D
O60    Bi56    2.131   1_655 D
O61    C64     1.254   1_455 S
O62    C65     1.391   .     S
O62    Bi1     2.159   1_545 S
O63    C65     1.217   .     D
C64    C66     1.475   .     S
C64    O61     1.254   1_655 S
C65    C72     1.469   .     S
C66    C67     1.403   .     D
C66    C73     1.401   .     S
C67    C69     1.407   .     S
C67    H68     1.080   1_655 D
H68    C67     1.080   1_455 D
C69    C70     1.403   .     D
C69    N75     1.438   .     S
C70    H71     1.083   .     S
C70    C72     1.401   .     S
C72    C73     1.399   .     D
C73    H74     1.080   .     S
N75    H112    1.043   .     S
N75    N21     1.411   1_655 S
O76    C81     1.221   .     D
O77    C81     1.395   .     S
O77    Bi56    2.152   1_545 S
O78    C82     1.218   .     D
O79    H80     1.013   .     S
O79    C82     1.396   .     S
C81    C88     1.475   .     S
C82    C83     1.473   .     S
C83    C84     1.392   .     D
C83    C89     1.397   .     S
C84    H85     1.079   .     S
C84    C91     1.404   .     S
C86    H87     1.083   .     S
C86    C88     1.408   .     S
C86    C91     1.404   .     D
C88    C89     1.402   .     D
C89    H90     1.079   .     S
C91    N92     1.437   .     S
N92    N93     1.407   .     S
N92    H113    1.044   .     S
N93    C103    1.426   .     S
N93    H114    1.042   .     S
O94    C98     1.218   .     D
O95    C98     1.399   .     S
O96    C99     1.400   .     S
O96    Bi55    2.150   1_565 S
O97    C99     1.218   1_554 S
C98    C100    1.475   .     S
C99    C106    1.476   .     S
C99    O97     1.218   1_556 S
C100   C101    1.406   .     S
C100   C107    1.409   .     D
C101   H102    1.082   .     S
C101   C103    1.398   .     D
C103   C104    1.395   .     S
C104   H105    1.084   .     S
C104   C106    1.396   .     D
C106   C107    1.405   .     S
C107   H108    1.083   .     S
