data_MAFLOX_FSR
_audit_creation_date              2024-06-11
_audit_creation_method            'Materials Studio'
_symmetry_space_group_name_H-M    'P1'
_symmetry_Int_Tables_number       1
_symmetry_cell_setting            triclinic
loop_
_symmetry_equiv_pos_as_xyz
  x,y,z
_cell_length_a                    11.9442
_cell_length_b                    19.1318
_cell_length_c                    9.2109
_cell_angle_alpha                 90.0000
_cell_angle_beta                  109.8210
_cell_angle_gamma                 90.0000
loop_
_atom_site_label
_atom_site_type_symbol
_atom_site_fract_x
_atom_site_fract_y
_atom_site_fract_z
_atom_site_U_iso_or_equiv
_atom_site_adp_type
_atom_site_occupancy
O1     O     0.68880   0.58702   0.28260   0.00000  Uiso   1.00
O2     O     0.61270   0.57827   0.46990   0.00000  Uiso   1.00
C3     C     0.68580   0.71270   0.57200   0.00000  Uiso   1.00
H4     H     0.64220   0.68790   0.62150   0.00000  Uiso   1.00
C5     C     0.77540   0.72040   0.37960   0.00000  Uiso   1.00
H6     H     0.79280   0.70070   0.29760   0.00000  Uiso   1.00
C7     C     0.71110   0.68270   0.45170   0.00000  Uiso   1.00
C8     C     0.66710   0.61030   0.39970   0.00000  Uiso   1.00
O9     O     0.18880   0.08702   0.28260   0.00000  Uiso   1.00
O10    O     0.11270   0.07827   0.46990   0.00000  Uiso   1.00
C11    C     0.18580   0.21270   0.57200   0.00000  Uiso   1.00
H12    H     0.14220   0.18790   0.62150   0.00000  Uiso   1.00
C13    C     0.27540   0.22040   0.37960   0.00000  Uiso   1.00
H14    H     0.29280   0.20070   0.29760   0.00000  Uiso   1.00
C15    C     0.21110   0.18270   0.45170   0.00000  Uiso   1.00
C16    C     0.16710   0.11030   0.39970   0.00000  Uiso   1.00
O17    O     0.31120   0.58702   0.71740   0.00000  Uiso   1.00
O18    O     0.38730   0.57827   0.53010   0.00000  Uiso   1.00
C19    C     0.31420   0.71270   0.42800   0.00000  Uiso   1.00
H20    H     0.35780   0.68790   0.37850   0.00000  Uiso   1.00
C21    C     0.22460   0.72040   0.62040   0.00000  Uiso   1.00
H22    H     0.20720   0.70070   0.70240   0.00000  Uiso   1.00
C23    C     0.28890   0.68270   0.54830   0.00000  Uiso   1.00
C24    C     0.33290   0.61030   0.60030   0.00000  Uiso   1.00
O25    O     0.81120   0.08702   0.71740   0.00000  Uiso   1.00
O26    O     0.88730   0.07827   0.53010   0.00000  Uiso   1.00
C27    C     0.81420   0.21270   0.42800   0.00000  Uiso   1.00
H28    H     0.85780   0.18790   0.37850   0.00000  Uiso   1.00
C29    C     0.72460   0.22040   0.62040   0.00000  Uiso   1.00
H30    H     0.70720   0.20070   0.70240   0.00000  Uiso   1.00
C31    C     0.78890   0.18270   0.54830   0.00000  Uiso   1.00
C32    C     0.83290   0.11030   0.60030   0.00000  Uiso   1.00
O33    O     0.31120   0.41298   0.71740   0.00000  Uiso   1.00
O34    O     0.38730   0.42173   0.53010   0.00000  Uiso   1.00
C35    C     0.31420   0.28730   0.42800   0.00000  Uiso   1.00
H36    H     0.35780   0.31210   0.37850   0.00000  Uiso   1.00
C37    C     0.22460   0.27960   0.62040   0.00000  Uiso   1.00
H38    H     0.20720   0.29930   0.70240   0.00000  Uiso   1.00
C39    C     0.28890   0.31730   0.54830   0.00000  Uiso   1.00
C40    C     0.33290   0.38970   0.60030   0.00000  Uiso   1.00
O41    O     0.81120   0.91298   0.71740   0.00000  Uiso   1.00
O42    O     0.88730   0.92173   0.53010   0.00000  Uiso   1.00
C43    C     0.81420   0.78730   0.42800   0.00000  Uiso   1.00
H44    H     0.85780   0.81210   0.37850   0.00000  Uiso   1.00
C45    C     0.72460   0.77960   0.62040   0.00000  Uiso   1.00
H46    H     0.70720   0.79930   0.70240   0.00000  Uiso   1.00
C47    C     0.78890   0.81730   0.54830   0.00000  Uiso   1.00
C48    C     0.83290   0.88970   0.60030   0.00000  Uiso   1.00
O49    O     0.68880   0.41298   0.28260   0.00000  Uiso   1.00
O50    O     0.61270   0.42173   0.46990   0.00000  Uiso   1.00
C51    C     0.68580   0.28730   0.57200   0.00000  Uiso   1.00
H52    H     0.64220   0.31210   0.62150   0.00000  Uiso   1.00
C53    C     0.77540   0.27960   0.37960   0.00000  Uiso   1.00
H54    H     0.79280   0.29930   0.29760   0.00000  Uiso   1.00
C55    C     0.71110   0.31730   0.45170   0.00000  Uiso   1.00
C56    C     0.66710   0.38970   0.39970   0.00000  Uiso   1.00
O57    O     0.18880   0.91298   0.28260   0.00000  Uiso   1.00
O58    O     0.11270   0.92173   0.46990   0.00000  Uiso   1.00
C59    C     0.18580   0.78730   0.57200   0.00000  Uiso   1.00
H60    H     0.14220   0.81210   0.62150   0.00000  Uiso   1.00
C61    C     0.27540   0.77960   0.37960   0.00000  Uiso   1.00
H62    H     0.29280   0.79930   0.29760   0.00000  Uiso   1.00
C63    C     0.21110   0.81730   0.45170   0.00000  Uiso   1.00
C64    C     0.16710   0.88970   0.39970   0.00000  Uiso   1.00
Zn65   Zn    0.62054   0.50000   0.19214   0.00000  Uiso   1.00
N66    N     0.44350   0.50000   0.15280   0.00000  Uiso   1.00
N67    N     0.39640   0.50000   0.26410   0.00000  Uiso   1.00
N68    N     0.35440   0.50000   0.01470   0.00000  Uiso   1.00
C69    C     0.28040   0.50000   0.19720   0.00000  Uiso   1.00
H70    H     0.22540   0.50000   0.24840   0.00000  Uiso   1.00
C71    C     0.25380   0.50000   0.04570   0.00000  Uiso   1.00
H72    H     0.17750   0.50000   0.97310   0.00000  Uiso   1.00
Zn73   Zn    0.12054   0.00000   0.19214   0.00000  Uiso   1.00
N74    N     0.94350   0.00000   0.15280   0.00000  Uiso   1.00
N75    N     0.89640   0.00000   0.26410   0.00000  Uiso   1.00
N76    N     0.85440   0.00000   0.01470   0.00000  Uiso   1.00
C77    C     0.78040   0.00000   0.19720   0.00000  Uiso   1.00
H78    H     0.72540   0.00000   0.24840   0.00000  Uiso   1.00
C79    C     0.75380   0.00000   0.04570   0.00000  Uiso   1.00
H80    H     0.67750   0.00000   0.97310   0.00000  Uiso   1.00
Zn81   Zn    0.37946   0.50000   0.80786   0.00000  Uiso   1.00
N82    N     0.55650   0.50000   0.84720   0.00000  Uiso   1.00
N83    N     0.60360   0.50000   0.73590   0.00000  Uiso   1.00
N84    N     0.64560   0.50000   0.98530   0.00000  Uiso   1.00
C85    C     0.71960   0.50000   0.80280   0.00000  Uiso   1.00
H86    H     0.77460   0.50000   0.75160   0.00000  Uiso   1.00
C87    C     0.74620   0.50000   0.95430   0.00000  Uiso   1.00
H88    H     0.82250   0.50000   0.02690   0.00000  Uiso   1.00
Zn89   Zn    0.87946   0.00000   0.80786   0.00000  Uiso   1.00
N90    N     0.05650   0.00000   0.84720   0.00000  Uiso   1.00
N91    N     0.10360   0.00000   0.73590   0.00000  Uiso   1.00
N92    N     0.14560   0.00000   0.98530   0.00000  Uiso   1.00
C93    C     0.21960   0.00000   0.80280   0.00000  Uiso   1.00
H94    H     0.27460   0.00000   0.75160   0.00000  Uiso   1.00
C95    C     0.24620   0.00000   0.95430   0.00000  Uiso   1.00
H96    H     0.32250   0.00000   0.02690   0.00000  Uiso   1.00
Zn97   Zn    0.50000   0.50000   0.50000   0.00000  Uiso   1.00
Zn98   Zn    0.00000   0.00000   0.50000   0.00000  Uiso   1.00
loop_
_geom_bond_atom_site_label_1
_geom_bond_atom_site_label_2
_geom_bond_distance
_geom_bond_site_symmetry_2
_ccdc_geom_bond_type
O1     Zn65    1.916   .     S
O1     C8      1.272   .     S
O2     Zn97    2.094   .     S
O2     C8      1.225   .     S
C3     H4      0.930   .     S
C3     C7      1.370   .     S
C3     C45     1.383   .     S
C5     H6      0.929   .     S
C5     C43     1.383   .     S
C5     C7      1.377   .     S
C7     C8      1.501   .     S
O9     Zn73    1.916   .     S
O9     C16     1.272   .     S
O10    Zn98    2.094   .     S
O10    C16     1.225   .     S
C11    H12     0.930   .     S
C11    C15     1.370   .     S
C11    C37     1.383   .     S
C13    H14     0.929   .     S
C13    C35     1.383   .     S
C13    C15     1.377   .     S
C15    C16     1.501   .     S
O17    Zn81    1.916   .     S
O17    C24     1.272   .     S
O18    Zn97    2.094   .     S
O18    C24     1.225   .     S
C19    H20     0.930   .     S
C19    C23     1.370   .     S
C19    C61     1.383   .     S
C21    H22     0.929   .     S
C21    C59     1.383   .     S
C21    C23     1.377   .     S
C23    C24     1.501   .     S
O25    Zn89    1.916   .     S
O25    C32     1.272   .     S
O26    Zn98    2.094   1_655 S
O26    C32     1.225   .     S
C27    H28     0.930   .     S
C27    C31     1.370   .     S
C27    C53     1.383   .     S
C29    H30     0.929   .     S
C29    C51     1.383   .     S
C29    C31     1.377   .     S
C31    C32     1.501   .     S
O33    Zn81    1.916   .     S
O33    C40     1.272   .     S
O34    Zn97    2.094   .     S
O34    C40     1.225   .     S
C35    H36     0.930   .     S
C35    C39     1.370   .     S
C37    H38     0.929   .     S
C37    C39     1.377   .     S
C39    C40     1.501   .     S
O41    Zn89    1.916   1_565 S
O41    C48     1.272   .     S
O42    Zn98    2.094   1_665 S
O42    C48     1.225   .     S
C43    H44     0.930   .     S
C43    C47     1.370   .     S
C45    H46     0.929   .     S
C45    C47     1.377   .     S
C47    C48     1.501   .     S
O49    Zn65    1.916   .     S
O49    C56     1.272   .     S
O50    Zn97    2.094   .     S
O50    C56     1.225   .     S
C51    H52     0.930   .     S
C51    C55     1.370   .     S
C53    H54     0.929   .     S
C53    C55     1.377   .     S
C55    C56     1.501   .     S
O57    Zn73    1.916   1_565 S
O57    C64     1.272   .     S
O58    Zn98    2.094   1_565 S
O58    C64     1.225   .     S
C59    H60     0.930   .     S
C59    C63     1.370   .     S
C61    H62     0.929   .     S
C61    C63     1.377   .     S
C63    C64     1.501   .     S
Zn65   N66     2.021   .     S
Zn65   N84     2.026   1_554 S
N66    N68     1.354   .     S
N66    N67     1.326   .     S
N67    Zn97    2.105   .     S
N67    C69     1.312   .     S
N68    C71     1.326   .     S
N68    Zn81    2.026   1_554 S
C69    H70     0.930   .     S
C69    C71     1.322   .     S
C71    H72     0.930   1_554 S
H72    C71     0.930   1_556 S
Zn73   O57     1.916   1_545 S
Zn73   N74     2.021   1_455 S
Zn73   N92     2.026   1_554 S
N74    Zn73    2.021   1_655 S
N74    N76     1.354   .     S
N74    N75     1.326   .     S
N75    Zn98    2.105   1_655 S
N75    C77     1.312   .     S
N76    C79     1.326   .     S
N76    Zn89    2.026   1_554 S
C77    H78     0.930   .     S
C77    C79     1.322   .     S
C79    H80     0.930   1_554 S
H80    C79     0.930   1_556 S
Zn81   N82     2.021   .     S
Zn81   N68     2.026   1_556 S
N82    N84     1.354   .     S
N82    N83     1.326   .     S
N83    Zn97    2.105   .     S
N83    C85     1.312   .     S
N84    C87     1.326   .     S
N84    Zn65    2.026   1_556 S
C85    H86     0.930   .     S
C85    C87     1.322   .     S
C87    H88     0.930   1_556 S
H88    C87     0.930   1_554 S
Zn89   O41     1.916   1_545 S
Zn89   N90     2.021   1_655 S
Zn89   N76     2.026   1_556 S
N90    Zn89    2.021   1_455 S
N90    N92     1.354   .     S
N90    N91     1.326   .     S
N91    Zn98    2.105   .     S
N91    C93     1.312   .     S
N92    C95     1.326   .     S
N92    Zn73    2.026   1_556 S
C93    H94     0.930   .     S
C93    C95     1.322   .     S
C95    H96     0.930   1_556 S
H96    C95     0.930   1_554 S
Zn98   O26     2.094   1_455 S
Zn98   O42     2.094   1_445 S
Zn98   O58     2.094   1_545 S
Zn98   N75     2.105   1_455 S
