data_MAFMIS_FSR
_audit_creation_date              2024-06-11
_audit_creation_method            'Materials Studio'
_symmetry_space_group_name_H-M    'P1'
_symmetry_Int_Tables_number       1
_symmetry_cell_setting            triclinic
loop_
_symmetry_equiv_pos_as_xyz
  x,y,z
_cell_length_a                    12.1742
_cell_length_b                    18.9858
_cell_length_c                    9.1980
_cell_angle_alpha                 90.0000
_cell_angle_beta                  108.8100
_cell_angle_gamma                 90.0000
loop_
_atom_site_label
_atom_site_type_symbol
_atom_site_fract_x
_atom_site_fract_y
_atom_site_fract_z
_atom_site_U_iso_or_equiv
_atom_site_adp_type
_atom_site_occupancy
O1     O     0.31199   0.08656   0.21823   0.00000  Uiso   1.00
O2     O     0.39177   0.07976   0.03411   0.00000  Uiso   1.00
C3     C     0.31550   0.21344   0.92850   0.00000  Uiso   1.00
H4     H     0.35980   0.18900   0.87970   0.00000  Uiso   1.00
C5     C     0.22480   0.21986   0.12120   0.00000  Uiso   1.00
H6     H     0.20750   0.19980   0.20350   0.00000  Uiso   1.00
C7     C     0.29029   0.18292   0.04990   0.00000  Uiso   1.00
C8     C     0.33518   0.11054   0.10330   0.00000  Uiso   1.00
O9     O     0.81199   0.58656   0.21823   0.00000  Uiso   1.00
O10    O     0.89177   0.57976   0.03411   0.00000  Uiso   1.00
C11    C     0.81550   0.71344   0.92850   0.00000  Uiso   1.00
H12    H     0.85980   0.68900   0.87970   0.00000  Uiso   1.00
C13    C     0.72480   0.71986   0.12120   0.00000  Uiso   1.00
H14    H     0.70750   0.69980   0.20350   0.00000  Uiso   1.00
C15    C     0.79029   0.68292   0.04990   0.00000  Uiso   1.00
C16    C     0.83518   0.61054   0.10330   0.00000  Uiso   1.00
O17    O     0.68801   0.08656   0.78177   0.00000  Uiso   1.00
O18    O     0.60823   0.07976   0.96589   0.00000  Uiso   1.00
C19    C     0.68450   0.21344   0.07150   0.00000  Uiso   1.00
H20    H     0.64020   0.18900   0.12030   0.00000  Uiso   1.00
C21    C     0.77520   0.21986   0.87880   0.00000  Uiso   1.00
H22    H     0.79250   0.19980   0.79650   0.00000  Uiso   1.00
C23    C     0.70971   0.18292   0.95010   0.00000  Uiso   1.00
C24    C     0.66482   0.11054   0.89670   0.00000  Uiso   1.00
O25    O     0.18801   0.58656   0.78177   0.00000  Uiso   1.00
O26    O     0.10823   0.57976   0.96589   0.00000  Uiso   1.00
C27    C     0.18450   0.71344   0.07150   0.00000  Uiso   1.00
H28    H     0.14020   0.68900   0.12030   0.00000  Uiso   1.00
C29    C     0.27520   0.71986   0.87880   0.00000  Uiso   1.00
H30    H     0.29250   0.69980   0.79650   0.00000  Uiso   1.00
C31    C     0.20971   0.68292   0.95010   0.00000  Uiso   1.00
C32    C     0.16482   0.61054   0.89670   0.00000  Uiso   1.00
O33    O     0.68801   0.91344   0.78177   0.00000  Uiso   1.00
O34    O     0.60823   0.92024   0.96589   0.00000  Uiso   1.00
C35    C     0.68450   0.78656   0.07150   0.00000  Uiso   1.00
H36    H     0.64020   0.81100   0.12030   0.00000  Uiso   1.00
C37    C     0.77520   0.78014   0.87880   0.00000  Uiso   1.00
H38    H     0.79250   0.80020   0.79650   0.00000  Uiso   1.00
C39    C     0.70971   0.81708   0.95010   0.00000  Uiso   1.00
C40    C     0.66482   0.88946   0.89670   0.00000  Uiso   1.00
O41    O     0.18801   0.41344   0.78177   0.00000  Uiso   1.00
O42    O     0.10823   0.42024   0.96589   0.00000  Uiso   1.00
C43    C     0.18450   0.28656   0.07150   0.00000  Uiso   1.00
H44    H     0.14020   0.31100   0.12030   0.00000  Uiso   1.00
C45    C     0.27520   0.28014   0.87880   0.00000  Uiso   1.00
H46    H     0.29250   0.30020   0.79650   0.00000  Uiso   1.00
C47    C     0.20971   0.31708   0.95010   0.00000  Uiso   1.00
C48    C     0.16482   0.38946   0.89670   0.00000  Uiso   1.00
O49    O     0.31199   0.91344   0.21823   0.00000  Uiso   1.00
O50    O     0.39177   0.92024   0.03411   0.00000  Uiso   1.00
C51    C     0.31550   0.78656   0.92850   0.00000  Uiso   1.00
H52    H     0.35980   0.81100   0.87970   0.00000  Uiso   1.00
C53    C     0.22480   0.78014   0.12120   0.00000  Uiso   1.00
H54    H     0.20750   0.80020   0.20350   0.00000  Uiso   1.00
C55    C     0.29029   0.81708   0.04990   0.00000  Uiso   1.00
C56    C     0.33518   0.88946   0.10330   0.00000  Uiso   1.00
O57    O     0.81199   0.41344   0.21823   0.00000  Uiso   1.00
O58    O     0.89177   0.42024   0.03411   0.00000  Uiso   1.00
C59    C     0.81550   0.28656   0.92850   0.00000  Uiso   1.00
H60    H     0.85980   0.31100   0.87970   0.00000  Uiso   1.00
C61    C     0.72480   0.28014   0.12120   0.00000  Uiso   1.00
H62    H     0.70750   0.30020   0.20350   0.00000  Uiso   1.00
C63    C     0.79029   0.31708   0.04990   0.00000  Uiso   1.00
C64    C     0.83518   0.38946   0.10330   0.00000  Uiso   1.00
Zn65   Zn    0.50000   0.00000  -0.00000   0.00000  Uiso   1.00
Zn66   Zn    0.00000   0.50000   0.00000   0.00000  Uiso   1.00
Zn67   Zn    0.38367   0.00000   0.31148   0.00000  Uiso   1.00
N68    N     0.55573   0.00000   0.34670   0.00000  Uiso   1.00
N69    N     0.63920   0.00000   0.48100   0.00000  Uiso   1.00
N70    N     0.60010   0.00000   0.23330   0.00000  Uiso   1.00
C71    C     0.73920   0.00000   0.45160   0.00000  Uiso   1.00
H72    H     0.81280   0.00000   0.52440   0.00000  Uiso   1.00
C73    C     0.71550   0.00000   0.29790   0.00000  Uiso   1.00
H74    H     0.76970   0.00000   0.24620   0.00000  Uiso   1.00
Zn75   Zn    0.88367   0.50000   0.31148   0.00000  Uiso   1.00
N76    N     0.05573   0.50000   0.34670   0.00000  Uiso   1.00
N77    N     0.13920   0.50000   0.48100   0.00000  Uiso   1.00
N78    N     0.10010   0.50000   0.23330   0.00000  Uiso   1.00
C79    C     0.23920   0.50000   0.45160   0.00000  Uiso   1.00
H80    H     0.31280   0.50000   0.52440   0.00000  Uiso   1.00
C81    C     0.21550   0.50000   0.29790   0.00000  Uiso   1.00
H82    H     0.26970   0.50000   0.24620   0.00000  Uiso   1.00
Zn83   Zn    0.61633   0.00000   0.68852   0.00000  Uiso   1.00
N84    N     0.44427   0.00000   0.65330   0.00000  Uiso   1.00
N85    N     0.36080   0.00000   0.51900   0.00000  Uiso   1.00
N86    N     0.39990   0.00000   0.76670   0.00000  Uiso   1.00
C87    C     0.26080   0.00000   0.54840   0.00000  Uiso   1.00
H88    H     0.18720   0.00000   0.47560   0.00000  Uiso   1.00
C89    C     0.28450   0.00000   0.70210   0.00000  Uiso   1.00
H90    H     0.23030   0.00000   0.75380   0.00000  Uiso   1.00
Zn91   Zn    0.11633   0.50000   0.68852   0.00000  Uiso   1.00
N92    N     0.94427   0.50000   0.65330   0.00000  Uiso   1.00
N93    N     0.86080   0.50000   0.51900   0.00000  Uiso   1.00
N94    N     0.89990   0.50000   0.76670   0.00000  Uiso   1.00
C95    C     0.76080   0.50000   0.54840   0.00000  Uiso   1.00
H96    H     0.68720   0.50000   0.47560   0.00000  Uiso   1.00
C97    C     0.78450   0.50000   0.70210   0.00000  Uiso   1.00
H98    H     0.73030   0.50000   0.75380   0.00000  Uiso   1.00
loop_
_geom_bond_atom_site_label_1
_geom_bond_atom_site_label_2
_geom_bond_distance
_geom_bond_site_symmetry_2
_ccdc_geom_bond_type
O1     Zn67    1.928   .     S
O1     C8      1.264   .     S
O2     Zn65    2.096   .     S
O2     C8      1.226   .     S
C3     H4      0.929   .     S
C3     C7      1.378   1_556 S
C3     C45     1.382   .     S
C5     H6      0.930   .     S
C5     C43     1.382   .     S
C5     C7      1.377   .     S
C7     C3      1.378   1_554 S
C7     C8      1.502   .     S
O9     Zn75    1.928   .     S
O9     C16     1.264   .     S
O10    Zn66    2.096   1_655 S
O10    C16     1.226   .     S
C11    H12     0.929   .     S
C11    C15     1.378   1_556 S
C11    C37     1.382   .     S
C13    H14     0.930   .     S
C13    C35     1.382   .     S
C13    C15     1.377   .     S
C15    C11     1.378   1_554 S
C15    C16     1.502   .     S
O17    Zn83    1.928   .     S
O17    C24     1.264   .     S
O18    Zn65    2.096   1_556 S
O18    C24     1.226   .     S
C19    H20     0.929   .     S
C19    C23     1.378   1_554 S
C19    C61     1.382   .     S
C21    H22     0.930   .     S
C21    C59     1.382   .     S
C21    C23     1.377   .     S
C23    C19     1.378   1_556 S
C23    C24     1.502   .     S
O25    Zn91    1.928   .     S
O25    C32     1.264   .     S
O26    Zn66    2.096   1_556 S
O26    C32     1.226   .     S
C27    H28     0.929   .     S
C27    C31     1.378   1_554 S
C27    C53     1.382   .     S
C29    H30     0.930   .     S
C29    C51     1.382   .     S
C29    C31     1.377   .     S
C31    C27     1.378   1_556 S
C31    C32     1.502   .     S
O33    Zn83    1.928   1_565 S
O33    C40     1.264   .     S
O34    Zn65    2.096   1_566 S
O34    C40     1.226   .     S
C35    H36     0.929   .     S
C35    C39     1.378   1_554 S
C37    H38     0.930   .     S
C37    C39     1.377   .     S
C39    C35     1.378   1_556 S
C39    C40     1.502   .     S
O41    Zn91    1.928   .     S
O41    C48     1.264   .     S
O42    Zn66    2.096   1_556 S
O42    C48     1.226   .     S
C43    H44     0.929   .     S
C43    C47     1.378   1_554 S
C45    H46     0.930   .     S
C45    C47     1.377   .     S
C47    C43     1.378   1_556 S
C47    C48     1.502   .     S
O49    Zn67    1.928   1_565 S
O49    C56     1.264   .     S
O50    Zn65    2.096   1_565 S
O50    C56     1.226   .     S
C51    H52     0.929   .     S
C51    C55     1.378   1_556 S
C53    H54     0.930   .     S
C53    C55     1.377   .     S
C55    C51     1.378   1_554 S
C55    C56     1.502   .     S
O57    Zn75    1.928   .     S
O57    C64     1.264   .     S
O58    Zn66    2.096   1_655 S
O58    C64     1.226   .     S
C59    H60     0.929   .     S
C59    C63     1.378   1_556 S
C61    H62     0.930   .     S
C61    C63     1.377   .     S
C63    C59     1.378   1_554 S
C63    C64     1.502   .     S
Zn65   O18     2.096   1_554 S
Zn65   O34     2.096   1_544 S
Zn65   O50     2.096   1_545 S
Zn65   N70     2.098   .     S
Zn65   N86     2.098   1_554 S
Zn66   O10     2.096   1_455 S
Zn66   O26     2.096   1_554 S
Zn66   O42     2.096   1_554 S
Zn66   O58     2.096   1_455 S
Zn66   N78     2.098   .     S
Zn66   N94     2.098   1_454 S
Zn67   O49     1.928   1_545 S
Zn67   N68     2.014   .     S
Zn67   N85     2.016   .     S
N68    N69     1.323   .     S
N68    N70     1.320   .     S
N69    C71     1.329   .     S
N69    Zn83    2.016   .     S
N70    C73     1.337   .     S
C71    H72     0.930   .     S
C71    C73     1.349   .     S
C73    H74     0.929   .     S
Zn75   N76     2.014   1_655 S
Zn75   N93     2.016   .     S
N76    Zn75    2.014   1_455 S
N76    N77     1.323   .     S
N76    N78     1.320   .     S
N77    C79     1.329   .     S
N77    Zn91    2.016   .     S
N78    C81     1.337   .     S
C79    H80     0.930   .     S
C79    C81     1.349   .     S
C81    H82     0.929   .     S
Zn83   O33     1.928   1_545 S
Zn83   N84     2.014   .     S
N84    N85     1.323   .     S
N84    N86     1.320   .     S
N85    C87     1.329   .     S
N86    Zn65    2.098   1_556 S
N86    C89     1.337   .     S
C87    H88     0.930   .     S
C87    C89     1.349   .     S
C89    H90     0.929   .     S
Zn91   N92     2.014   1_455 S
N92    Zn91    2.014   1_655 S
N92    N93     1.323   .     S
N92    N94     1.320   .     S
N93    C95     1.329   .     S
N94    Zn66    2.098   1_656 S
N94    C97     1.337   .     S
C95    H96     0.930   .     S
C95    C97     1.349   .     S
C97    H98     0.929   .     S
