data_MAFMAK_FSR
_audit_creation_date              2024-06-11
_audit_creation_method            'Materials Studio'
_symmetry_space_group_name_H-M    'P1'
_symmetry_Int_Tables_number       1
_symmetry_cell_setting            triclinic
loop_
_symmetry_equiv_pos_as_xyz
  x,y,z
_cell_length_a                    9.2142
_cell_length_b                    11.1531
_cell_length_c                    11.3582
_cell_angle_alpha                 112.2940
_cell_angle_beta                  99.4940
_cell_angle_gamma                 99.0460
loop_
_atom_site_label
_atom_site_type_symbol
_atom_site_fract_x
_atom_site_fract_y
_atom_site_fract_z
_atom_site_U_iso_or_equiv
_atom_site_adp_type
_atom_site_occupancy
Zn1    Zn    0.18384   0.61180   0.11164   0.00000  Uiso   1.00
O2     O     0.28050   0.59460   0.26570   0.00000  Uiso   1.00
O3     O     0.26800   0.77360   0.09490   0.00000  Uiso   1.00
N4     N     0.84430   0.55050   0.05370   0.00000  Uiso   1.00
C5     C     0.56390   0.45610   0.39490   0.00000  Uiso   1.00
H6     H     0.60730   0.42640   0.32390   0.00000  Uiso   1.00
O7     O     0.46070   0.69080   0.04290   0.00000  Uiso   1.00
O8     O     0.45880   0.50330   0.17520   0.00000  Uiso   1.00
C9     C     0.56690   0.89370   0.96860   0.00000  Uiso   1.00
H10    H     0.61150   0.82150   0.94650   0.00000  Uiso   1.00
N11    N     0.73020   0.59590   0.10100   0.00000  Uiso   1.00
C12    C     0.37990   0.99860   0.05710   0.00000  Uiso   1.00
H13    H     0.29780   0.99750   0.09500   0.00000  Uiso   1.00
C14    C     0.38530   0.56600   0.49480   0.00000  Uiso   1.00
H15    H     0.30830   0.61040   0.49190   0.00000  Uiso   1.00
N16    N     0.97600   0.63280   0.13860   0.00000  Uiso   1.00
C17    C     0.44930   0.52200   0.38980   0.00000  Uiso   1.00
C18    C     0.44650   0.89320   0.02740   0.00000  Uiso   1.00
C19    C     0.38980   0.77540   0.05770   0.00000  Uiso   1.00
C20    C     0.39360   0.54310   0.26720   0.00000  Uiso   1.00
C21    C     0.93840   0.72210   0.23530   0.00000  Uiso   1.00
H22    H     0.00630   0.78920   0.30980   0.00000  Uiso   1.00
C23    C     0.78880   0.70200   0.21060   0.00000  Uiso   1.00
H24    H     0.73480   0.75460   0.26250   0.00000  Uiso   1.00
Zn25   Zn    0.81616   0.38820   0.88836   0.00000  Uiso   1.00
O26    O     0.71950   0.40540   0.73430   0.00000  Uiso   1.00
O27    O     0.73200   0.22640   0.90510   0.00000  Uiso   1.00
N28    N     0.15570   0.44950   0.94630   0.00000  Uiso   1.00
C29    C     0.43610   0.54390   0.60510   0.00000  Uiso   1.00
H30    H     0.39270   0.57360   0.67610   0.00000  Uiso   1.00
O31    O     0.53930   0.30920   0.95710   0.00000  Uiso   1.00
O32    O     0.54120   0.49670   0.82480   0.00000  Uiso   1.00
C33    C     0.43310   0.10630   0.03140   0.00000  Uiso   1.00
H34    H     0.38850   0.17850   0.05350   0.00000  Uiso   1.00
N35    N     0.26980   0.40410   0.89900   0.00000  Uiso   1.00
C36    C     0.62010   0.00140   0.94290   0.00000  Uiso   1.00
H37    H     0.70220   0.00250   0.90500   0.00000  Uiso   1.00
C38    C     0.61470   0.43400   0.50520   0.00000  Uiso   1.00
H39    H     0.69170   0.38960   0.50810   0.00000  Uiso   1.00
N40    N     0.02400   0.36720   0.86140   0.00000  Uiso   1.00
C41    C     0.55070   0.47800   0.61020   0.00000  Uiso   1.00
C42    C     0.55350   0.10680   0.97260   0.00000  Uiso   1.00
C43    C     0.61020   0.22460   0.94230   0.00000  Uiso   1.00
C44    C     0.60640   0.45690   0.73280   0.00000  Uiso   1.00
C45    C     0.06160   0.27790   0.76470   0.00000  Uiso   1.00
H46    H     0.99370   0.21080   0.69020   0.00000  Uiso   1.00
C47    C     0.21120   0.29800   0.78940   0.00000  Uiso   1.00
H48    H     0.26520   0.24540   0.73750   0.00000  Uiso   1.00
Zn49   Zn    0.50000   0.50000  -0.00000   0.00000  Uiso   1.00
loop_
_geom_bond_atom_site_label_1
_geom_bond_atom_site_label_2
_geom_bond_distance
_geom_bond_site_symmetry_2
_ccdc_geom_bond_type
Zn1    O2      1.920   .     S
Zn1    O3      1.940   .     S
Zn1    N28     1.996   1_554 S
Zn1    N16     2.024   1_455 S
O2     C20     1.267   .     S
O3     C19     1.263   .     S
N4     N11     1.341   .     S
N4     N16     1.355   .     S
N4     Zn25    1.996   1_554 S
C5     H6      0.930   .     S
C5     C17     1.384   .     S
C5     C38     1.388   .     S
O7     Zn49    2.100   .     S
O7     C19     1.206   .     S
O8     Zn49    2.074   .     S
O8     C20     1.261   .     S
C9     H10     0.930   .     S
C9     C18     1.386   1_556 S
C9     C36     1.377   1_565 S
N11    Zn49    2.124   .     S
N11    C23     1.304   .     S
C12    H13     0.931   .     S
C12    C33     1.377   1_565 S
C12    C18     1.366   .     S
C14    H15     0.930   .     S
C14    C29     1.388   .     S
C14    C17     1.375   .     S
N16    C21     1.312   .     S
N16    Zn1     2.024   1_655 S
C17    C20     1.519   .     S
C18    C9      1.386   1_554 S
C18    C19     1.518   .     S
C21    H22     0.930   1_655 S
C21    C23     1.325   .     S
H22    C21     0.930   1_455 S
C23    H24     0.930   .     S
Zn25   O26     1.920   .     S
Zn25   O27     1.940   .     S
Zn25   N4      1.996   1_556 S
Zn25   N40     2.024   1_655 S
O26    C44     1.267   .     S
O27    C43     1.263   .     S
N28    N35     1.341   .     S
N28    N40     1.355   .     S
N28    Zn1     1.996   1_556 S
C29    H30     0.930   .     S
C29    C41     1.384   .     S
O31    Zn49    2.100   1_556 S
O31    C43     1.206   .     S
O32    Zn49    2.074   1_556 S
O32    C44     1.261   .     S
C33    H34     0.930   .     S
C33    C42     1.386   1_554 S
C33    C12     1.377   1_545 S
N35    Zn49    2.124   1_556 S
N35    C47     1.304   .     S
C36    H37     0.931   .     S
C36    C9      1.377   1_545 S
C36    C42     1.366   .     S
C38    H39     0.930   .     S
C38    C41     1.375   .     S
N40    C45     1.312   .     S
N40    Zn25    2.024   1_455 S
C41    C44     1.519   .     S
C42    C33     1.386   1_556 S
C42    C43     1.518   .     S
C45    H46     0.930   1_455 S
C45    C47     1.325   .     S
H46    C45     0.930   1_655 S
C47    H48     0.930   .     S
Zn49   O31     2.100   1_554 S
Zn49   O32     2.074   1_554 S
Zn49   N35     2.124   1_554 S
