data_MALPEY_FSR
_audit_creation_date              2024-06-11
_audit_creation_method            'Materials Studio'
_symmetry_space_group_name_H-M    'P1'
_symmetry_Int_Tables_number       1
_symmetry_cell_setting            triclinic
loop_
_symmetry_equiv_pos_as_xyz
  x,y,z
_cell_length_a                    7.3121
_cell_length_b                    9.4816
_cell_length_c                    11.8030
_cell_angle_alpha                 81.4820
_cell_angle_beta                  74.9500
_cell_angle_gamma                 73.3340
loop_
_atom_site_label
_atom_site_type_symbol
_atom_site_fract_x
_atom_site_fract_y
_atom_site_fract_z
_atom_site_U_iso_or_equiv
_atom_site_adp_type
_atom_site_occupancy
Pb1    Pb    0.59710   0.25606   0.03299   0.00000  Uiso   1.00
Pb2    Pb    0.16219   0.05367   0.23422   0.00000  Uiso   1.00
C3     C     0.30400   0.06600   0.89100   0.00000  Uiso   1.00
C4     C     0.54900   0.33600   0.34500   0.00000  Uiso   1.00
C5     C     0.26100   0.73300   0.29700   0.00000  Uiso   1.00
O6     O     0.82500   0.13300   0.35800   0.00000  Uiso   1.00
O7     O     0.70300   0.50800   0.99100   0.00000  Uiso   1.00
O8     O     0.74500   0.68000   0.84600   0.00000  Uiso   1.00
O9     O     0.44900   0.97500   0.83100   0.00000  Uiso   1.00
O10    O     0.13000   0.82700   0.36110   0.00000  Uiso   1.00
C11    C     0.45500   0.30300   0.46100   0.00000  Uiso   1.00
H12    H     0.49864   0.20738   0.49823   0.00000  Uiso   1.00
C13    C     0.73700   0.22800   0.28800   0.00000  Uiso   1.00
C14    C     0.24100   0.54300   0.46300   0.00000  Uiso   1.00
H15    H     0.13736   0.61797   0.50307   0.00000  Uiso   1.00
C16    C     0.21600   0.20300   0.82900   0.00000  Uiso   1.00
C17    C     0.06400   0.30500   0.89200   0.00000  Uiso   1.00
H18    H     0.01248   0.28249   0.97362   0.00000  Uiso   1.00
O19    O     0.34000   0.76400   0.19090   0.00000  Uiso   1.00
O20    O     0.80100   0.24000   0.18100   0.00000  Uiso   1.00
C21    C     0.80000   0.55100   0.89600   0.00000  Uiso   1.00
C22    C     0.29600   0.40700   0.52600   0.00000  Uiso   1.00
O23    O     0.23000   0.03300   0.99800   0.00000  Uiso   1.00
C24    C     0.21300   0.36900   0.65100   0.00000  Uiso   1.00
C25    C     0.28700   0.23500   0.71000   0.00000  Uiso   1.00
H26    H     0.39012   0.16193   0.66736   0.00000  Uiso   1.00
C27    C     0.06500   0.46900   0.70900   0.00000  Uiso   1.00
H28    H     0.01030   0.55996   0.66896   0.00000  Uiso   1.00
C29    C     0.33000   0.57900   0.34100   0.00000  Uiso   1.00
C30    C     0.98500   0.44000   0.83800   0.00000  Uiso   1.00
C31    C     0.48200   0.47800   0.28900   0.00000  Uiso   1.00
H32    H     0.54810   0.50074   0.21062   0.00000  Uiso   1.00
O33    O     0.19900   0.07800   0.44500   0.00000  Uiso   1.00
H34    H     0.14131   0.01970   0.49758   0.00000  Uiso   1.00
H35    H     0.13562   0.16617   0.46792   0.00000  Uiso   1.00
Pb36   Pb    0.40290   0.74394   0.96701   0.00000  Uiso   1.00
Pb37   Pb    0.83781   0.94633   0.76578   0.00000  Uiso   1.00
C38    C     0.69600   0.93400   0.10900   0.00000  Uiso   1.00
C39    C     0.45100   0.66400   0.65500   0.00000  Uiso   1.00
C40    C     0.73900   0.26700   0.70300   0.00000  Uiso   1.00
O41    O     0.17500   0.86700   0.64200   0.00000  Uiso   1.00
O42    O     0.29700   0.49200   0.00900   0.00000  Uiso   1.00
O43    O     0.25500   0.32000   0.15400   0.00000  Uiso   1.00
O44    O     0.55100   0.02500   0.16900   0.00000  Uiso   1.00
O45    O     0.87000   0.17300   0.63890   0.00000  Uiso   1.00
C46    C     0.54500   0.69700   0.53900   0.00000  Uiso   1.00
H47    H     0.50136   0.79262   0.50177   0.00000  Uiso   1.00
C48    C     0.26300   0.77200   0.71200   0.00000  Uiso   1.00
C49    C     0.75900   0.45700   0.53700   0.00000  Uiso   1.00
H50    H     0.86264   0.38203   0.49693   0.00000  Uiso   1.00
C51    C     0.78400   0.79700   0.17100   0.00000  Uiso   1.00
C52    C     0.93600   0.69500   0.10800   0.00000  Uiso   1.00
H53    H     0.98752   0.71751   0.02638   0.00000  Uiso   1.00
O54    O     0.66000   0.23600   0.80910   0.00000  Uiso   1.00
O55    O     0.19900   0.76000   0.81900   0.00000  Uiso   1.00
C56    C     0.20000   0.44900   0.10400   0.00000  Uiso   1.00
C57    C     0.70400   0.59300   0.47400   0.00000  Uiso   1.00
O58    O     0.77000   0.96700   0.00200   0.00000  Uiso   1.00
C59    C     0.78700   0.63100   0.34900   0.00000  Uiso   1.00
C60    C     0.71300   0.76500   0.29000   0.00000  Uiso   1.00
H61    H     0.60988   0.83807   0.33264   0.00000  Uiso   1.00
C62    C     0.93500   0.53100   0.29100   0.00000  Uiso   1.00
H63    H     0.98970   0.44004   0.33104   0.00000  Uiso   1.00
C64    C     0.67000   0.42100   0.65900   0.00000  Uiso   1.00
C65    C     0.01500   0.56000   0.16200   0.00000  Uiso   1.00
C66    C     0.51800   0.52200   0.71100   0.00000  Uiso   1.00
H67    H     0.45190   0.49926   0.78938   0.00000  Uiso   1.00
O68    O     0.80100   0.92200   0.55500   0.00000  Uiso   1.00
H69    H     0.85869   0.98030   0.50242   0.00000  Uiso   1.00
H70    H     0.86438   0.83383   0.53208   0.00000  Uiso   1.00
loop_
_geom_bond_atom_site_label_1
_geom_bond_atom_site_label_2
_geom_bond_distance
_geom_bond_site_symmetry_2
_ccdc_geom_bond_type
Pb1    O20     2.538   .     S
Pb1    O7      2.658   1_554 S
Pb1    O42     2.687   .     S
Pb1    O43     2.489   .     S
Pb1    O44     2.567   .     S
Pb1    O54     2.588   1_554 S
Pb1    O58     2.704   1_545 S
Pb2    O10     2.464   1_545 S
Pb2    O19     2.742   1_545 S
Pb2    O33     2.621   .     S
Pb2    O6      2.484   1_455 S
Pb2    O43     2.770   .     S
Pb2    O44     2.689   .     S
Pb2    O20     2.889   1_455 S
Pb2    O23     2.729   1_554 S
C3     O9      1.279   1_545 S
C3     C16     1.456   .     S
C3     O23     1.269   .     S
C4     C11     1.397   .     S
C4     C13     1.519   .     S
C4     C31     1.420   .     S
C5     O10     1.272   .     S
C5     C29     1.465   .     S
C5     O19     1.265   .     S
O6     C13     1.277   .     S
O6     Pb2     2.484   1_655 S
O7     C21     1.243   .     S
O7     Pb1     2.658   1_556 S
O7     Pb36    2.687   .     S
O8     C21     1.278   .     S
O8     Pb37    2.770   .     S
O8     Pb36    2.489   .     S
O9     C3      1.279   1_565 S
O9     Pb36    2.567   .     S
O9     Pb37    2.689   .     S
O10    Pb2     2.464   1_565 S
C11    H12     0.952   .     S
C11    C22     1.420   .     S
C13    O20     1.228   .     S
C14    H15     0.953   .     S
C14    C22     1.397   .     S
C14    C29     1.452   .     S
C16    C17     1.375   .     S
C16    C25     1.386   .     S
C17    H18     0.955   .     S
C17    C30     1.380   1_455 S
O19    Pb2     2.742   1_565 S
O19    Pb36    2.588   1_554 S
O20    Pb2     2.889   1_655 S
C21    C30     1.524   .     S
C22    C24     1.476   .     S
O23    Pb36    2.704   1_545 S
O23    Pb2     2.729   1_556 S
C24    C27     1.326   .     S
C24    C25     1.390   .     S
C25    H26     0.953   .     S
C27    H28     0.952   .     S
C27    C30     1.497   1_455 S
C29    C31     1.318   .     S
C30    C17     1.380   1_655 S
C30    C27     1.497   1_655 S
C31    H32     0.951   .     S
O33    H34     0.875   .     S
O33    H35     0.876   .     S
Pb36   O55     2.538   .     S
Pb36   O42     2.658   1_556 S
Pb36   O19     2.588   1_556 S
Pb36   O23     2.704   1_565 S
Pb37   O45     2.464   1_565 S
Pb37   O54     2.742   1_565 S
Pb37   O68     2.621   .     S
Pb37   O41     2.484   1_655 S
Pb37   O55     2.889   1_655 S
Pb37   O58     2.729   1_556 S
C38    O44     1.279   1_565 S
C38    C51     1.456   .     S
C38    O58     1.269   .     S
C39    C46     1.397   .     S
C39    C48     1.519   .     S
C39    C66     1.420   .     S
C40    O45     1.272   .     S
C40    C64     1.465   .     S
C40    O54     1.265   .     S
O41    C48     1.277   .     S
O41    Pb37    2.484   1_455 S
O42    C56     1.243   .     S
O42    Pb36    2.658   1_554 S
O43    C56     1.278   .     S
O44    C38     1.279   1_545 S
O45    Pb37    2.464   1_545 S
C46    H47     0.952   .     S
C46    C57     1.420   .     S
C48    O55     1.228   .     S
C49    H50     0.953   .     S
C49    C57     1.397   .     S
C49    C64     1.452   .     S
C51    C52     1.375   .     S
C51    C60     1.386   .     S
C52    H53     0.955   .     S
C52    C65     1.380   1_655 S
O54    Pb37    2.742   1_545 S
O54    Pb1     2.588   1_556 S
O55    Pb37    2.889   1_455 S
C56    C65     1.524   .     S
C57    C59     1.476   .     S
O58    Pb1     2.704   1_565 S
O58    Pb37    2.729   1_554 S
C59    C62     1.326   .     S
C59    C60     1.390   .     S
C60    H61     0.953   .     S
C62    H63     0.952   .     S
C62    C65     1.497   1_655 S
C64    C66     1.318   .     S
C65    C52     1.380   1_455 S
C65    C62     1.497   1_455 S
C66    H67     0.951   .     S
O68    H69     0.875   .     S
O68    H70     0.876   .     S
