data_MAQLAV_FSR
_audit_creation_date              2024-06-11
_audit_creation_method            'Materials Studio'
_symmetry_space_group_name_H-M    'P1'
_symmetry_Int_Tables_number       1
_symmetry_cell_setting            triclinic
loop_
_symmetry_equiv_pos_as_xyz
  x,y,z
_cell_length_a                    22.7520
_cell_length_b                    22.7520
_cell_length_c                    19.1914
_cell_angle_alpha                 90.0000
_cell_angle_beta                  90.0000
_cell_angle_gamma                 90.0000
loop_
_atom_site_label
_atom_site_type_symbol
_atom_site_fract_x
_atom_site_fract_y
_atom_site_fract_z
_atom_site_U_iso_or_equiv
_atom_site_adp_type
_atom_site_occupancy
O1     O     0.55920   0.15820   0.56990   0.00000  Uiso   1.00
O2     O     0.60930   0.08780   0.62730   0.00000  Uiso   1.00
C3     C     0.59770   0.13810   0.61400   0.00000  Uiso   1.00
C4     C     0.66280   0.16950   0.71060   0.00000  Uiso   1.00
H5     H     0.66520   0.13010   0.72330   0.00000  Uiso   1.00
C6     C     0.62890   0.18600   0.65360   0.00000  Uiso   1.00
C7     C     0.62530   0.24480   0.63460   0.00000  Uiso   1.00
H8     H     0.60260   0.25590   0.59640   0.00000  Uiso   1.00
C9     C     0.65550   0.28710   0.67250   0.00000  Uiso   1.00
C10    C     0.68940   0.27060   0.72950   0.00000  Uiso   1.00
C11    C     0.69300   0.21180   0.74860   0.00000  Uiso   1.00
H12    H     0.71570   0.20070   0.78670   0.00000  Uiso   1.00
S13    S     0.64070   0.36340   0.63870   0.00000  Uiso   1.00
O14    O     0.69270   0.37860   0.64670   0.00000  Uiso   1.00
O15    O     0.61360   0.37420   0.69570   0.00000  Uiso   1.00
O16    O     0.61670   0.34580   0.58260   0.00000  Uiso   1.00
O17    O     0.44080   0.84180   0.56990   0.00000  Uiso   1.00
O18    O     0.39070   0.91220   0.62730   0.00000  Uiso   1.00
C19    C     0.40230   0.86190   0.61400   0.00000  Uiso   1.00
C20    C     0.33720   0.83050   0.71060   0.00000  Uiso   1.00
H21    H     0.33480   0.86990   0.72330   0.00000  Uiso   1.00
C22    C     0.37110   0.81400   0.65360   0.00000  Uiso   1.00
C23    C     0.37470   0.75520   0.63460   0.00000  Uiso   1.00
H24    H     0.39740   0.74410   0.59640   0.00000  Uiso   1.00
C25    C     0.34450   0.71290   0.67250   0.00000  Uiso   1.00
C26    C     0.31060   0.72940   0.72950   0.00000  Uiso   1.00
C27    C     0.30700   0.78820   0.74860   0.00000  Uiso   1.00
H28    H     0.28430   0.79930   0.78670   0.00000  Uiso   1.00
S29    S     0.35930   0.63660   0.63870   0.00000  Uiso   1.00
O30    O     0.30730   0.62140   0.64670   0.00000  Uiso   1.00
O31    O     0.38640   0.62580   0.69570   0.00000  Uiso   1.00
O32    O     0.38330   0.65420   0.58260   0.00000  Uiso   1.00
O33    O     0.84180   0.55920   0.06990   0.00000  Uiso   1.00
O34    O     0.91220   0.60930   0.12730   0.00000  Uiso   1.00
C35    C     0.86190   0.59770   0.11400   0.00000  Uiso   1.00
C36    C     0.83050   0.66280   0.21060   0.00000  Uiso   1.00
H37    H     0.86990   0.66520   0.22330   0.00000  Uiso   1.00
C38    C     0.81400   0.62890   0.15360   0.00000  Uiso   1.00
C39    C     0.75520   0.62530   0.13460   0.00000  Uiso   1.00
H40    H     0.74410   0.60260   0.09640   0.00000  Uiso   1.00
C41    C     0.71290   0.65550   0.17250   0.00000  Uiso   1.00
C42    C     0.72940   0.68940   0.22950   0.00000  Uiso   1.00
C43    C     0.78820   0.69300   0.24860   0.00000  Uiso   1.00
H44    H     0.79930   0.71570   0.28670   0.00000  Uiso   1.00
S45    S     0.63660   0.64070   0.13870   0.00000  Uiso   1.00
O46    O     0.62140   0.69270   0.14670   0.00000  Uiso   1.00
O47    O     0.62580   0.61360   0.19570   0.00000  Uiso   1.00
O48    O     0.65420   0.61670   0.08260   0.00000  Uiso   1.00
O49    O     0.15820   0.44080   0.06990   0.00000  Uiso   1.00
O50    O     0.08780   0.39070   0.12730   0.00000  Uiso   1.00
C51    C     0.13810   0.40230   0.11400   0.00000  Uiso   1.00
C52    C     0.16950   0.33720   0.21060   0.00000  Uiso   1.00
H53    H     0.13010   0.33480   0.22330   0.00000  Uiso   1.00
C54    C     0.18600   0.37110   0.15360   0.00000  Uiso   1.00
C55    C     0.24480   0.37470   0.13460   0.00000  Uiso   1.00
H56    H     0.25590   0.39740   0.09640   0.00000  Uiso   1.00
C57    C     0.28710   0.34450   0.17250   0.00000  Uiso   1.00
C58    C     0.27060   0.31060   0.22950   0.00000  Uiso   1.00
C59    C     0.21180   0.30700   0.24860   0.00000  Uiso   1.00
H60    H     0.20070   0.28430   0.28670   0.00000  Uiso   1.00
S61    S     0.36340   0.35930   0.13870   0.00000  Uiso   1.00
O62    O     0.37860   0.30730   0.14670   0.00000  Uiso   1.00
O63    O     0.37420   0.38640   0.19570   0.00000  Uiso   1.00
O64    O     0.34580   0.38330   0.08260   0.00000  Uiso   1.00
O65    O     0.44080   0.15820   0.43010   0.00000  Uiso   1.00
O66    O     0.39070   0.08780   0.37270   0.00000  Uiso   1.00
C67    C     0.40230   0.13810   0.38600   0.00000  Uiso   1.00
C68    C     0.33720   0.16950   0.28940   0.00000  Uiso   1.00
H69    H     0.33480   0.13010   0.27670   0.00000  Uiso   1.00
C70    C     0.37110   0.18600   0.34640   0.00000  Uiso   1.00
C71    C     0.37470   0.24480   0.36540   0.00000  Uiso   1.00
H72    H     0.39740   0.25590   0.40360   0.00000  Uiso   1.00
C73    C     0.34450   0.28710   0.32750   0.00000  Uiso   1.00
C74    C     0.31060   0.27060   0.27050   0.00000  Uiso   1.00
C75    C     0.30700   0.21180   0.25140   0.00000  Uiso   1.00
H76    H     0.28430   0.20070   0.21330   0.00000  Uiso   1.00
S77    S     0.35930   0.36340   0.36130   0.00000  Uiso   1.00
O78    O     0.30730   0.37860   0.35330   0.00000  Uiso   1.00
O79    O     0.38640   0.37420   0.30430   0.00000  Uiso   1.00
O80    O     0.38330   0.34580   0.41740   0.00000  Uiso   1.00
O81    O     0.55920   0.84180   0.43010   0.00000  Uiso   1.00
O82    O     0.60930   0.91220   0.37270   0.00000  Uiso   1.00
C83    C     0.59770   0.86190   0.38600   0.00000  Uiso   1.00
C84    C     0.66280   0.83050   0.28940   0.00000  Uiso   1.00
H85    H     0.66520   0.86990   0.27670   0.00000  Uiso   1.00
C86    C     0.62890   0.81400   0.34640   0.00000  Uiso   1.00
C87    C     0.62530   0.75520   0.36540   0.00000  Uiso   1.00
H88    H     0.60260   0.74410   0.40360   0.00000  Uiso   1.00
C89    C     0.65550   0.71290   0.32750   0.00000  Uiso   1.00
C90    C     0.68940   0.72940   0.27050   0.00000  Uiso   1.00
C91    C     0.69300   0.78820   0.25140   0.00000  Uiso   1.00
H92    H     0.71570   0.79930   0.21330   0.00000  Uiso   1.00
S93    S     0.64070   0.63660   0.36130   0.00000  Uiso   1.00
O94    O     0.69270   0.62140   0.35330   0.00000  Uiso   1.00
O95    O     0.61360   0.62580   0.30430   0.00000  Uiso   1.00
O96    O     0.61670   0.65420   0.41740   0.00000  Uiso   1.00
O97    O     0.15820   0.55920   0.93010   0.00000  Uiso   1.00
O98    O     0.08780   0.60930   0.87270   0.00000  Uiso   1.00
C99    C     0.13810   0.59770   0.88600   0.00000  Uiso   1.00
C100   C     0.16950   0.66280   0.78940   0.00000  Uiso   1.00
H101   H     0.13010   0.66520   0.77670   0.00000  Uiso   1.00
C102   C     0.18600   0.62890   0.84640   0.00000  Uiso   1.00
C103   C     0.24480   0.62530   0.86540   0.00000  Uiso   1.00
H104   H     0.25590   0.60260   0.90360   0.00000  Uiso   1.00
C105   C     0.28710   0.65550   0.82750   0.00000  Uiso   1.00
C106   C     0.27060   0.68940   0.77050   0.00000  Uiso   1.00
C107   C     0.21180   0.69300   0.75140   0.00000  Uiso   1.00
H108   H     0.20070   0.71570   0.71330   0.00000  Uiso   1.00
S109   S     0.36340   0.64070   0.86130   0.00000  Uiso   1.00
O110   O     0.37860   0.69270   0.85330   0.00000  Uiso   1.00
O111   O     0.37420   0.61360   0.80430   0.00000  Uiso   1.00
O112   O     0.34580   0.61670   0.91740   0.00000  Uiso   1.00
O113   O     0.84180   0.44080   0.93010   0.00000  Uiso   1.00
O114   O     0.91220   0.39070   0.87270   0.00000  Uiso   1.00
C115   C     0.86190   0.40230   0.88600   0.00000  Uiso   1.00
C116   C     0.83050   0.33720   0.78940   0.00000  Uiso   1.00
H117   H     0.86990   0.33480   0.77670   0.00000  Uiso   1.00
C118   C     0.81400   0.37110   0.84640   0.00000  Uiso   1.00
C119   C     0.75520   0.37470   0.86540   0.00000  Uiso   1.00
H120   H     0.74410   0.39740   0.90360   0.00000  Uiso   1.00
C121   C     0.71290   0.34450   0.82750   0.00000  Uiso   1.00
C122   C     0.72940   0.31060   0.77050   0.00000  Uiso   1.00
C123   C     0.78820   0.30700   0.75140   0.00000  Uiso   1.00
H124   H     0.79930   0.28430   0.71330   0.00000  Uiso   1.00
S125   S     0.63660   0.35930   0.86130   0.00000  Uiso   1.00
O126   O     0.62140   0.30730   0.85330   0.00000  Uiso   1.00
O127   O     0.62580   0.38640   0.80430   0.00000  Uiso   1.00
O128   O     0.65420   0.38330   0.91740   0.00000  Uiso   1.00
O129   O     0.44080   0.84180   0.43010   0.00000  Uiso   1.00
O130   O     0.39070   0.91220   0.37270   0.00000  Uiso   1.00
C131   C     0.40230   0.86190   0.38600   0.00000  Uiso   1.00
C132   C     0.33720   0.83050   0.28940   0.00000  Uiso   1.00
H133   H     0.33480   0.86990   0.27670   0.00000  Uiso   1.00
C134   C     0.37110   0.81400   0.34640   0.00000  Uiso   1.00
C135   C     0.37470   0.75520   0.36540   0.00000  Uiso   1.00
H136   H     0.39740   0.74410   0.40360   0.00000  Uiso   1.00
C137   C     0.34450   0.71290   0.32750   0.00000  Uiso   1.00
C138   C     0.31060   0.72940   0.27050   0.00000  Uiso   1.00
C139   C     0.30700   0.78820   0.25140   0.00000  Uiso   1.00
H140   H     0.28430   0.79930   0.21330   0.00000  Uiso   1.00
S141   S     0.35930   0.63660   0.36130   0.00000  Uiso   1.00
O142   O     0.30730   0.62140   0.35330   0.00000  Uiso   1.00
O143   O     0.38640   0.62580   0.30430   0.00000  Uiso   1.00
O144   O     0.38330   0.65420   0.41740   0.00000  Uiso   1.00
O145   O     0.55920   0.15820   0.43010   0.00000  Uiso   1.00
O146   O     0.60930   0.08780   0.37270   0.00000  Uiso   1.00
C147   C     0.59770   0.13810   0.38600   0.00000  Uiso   1.00
C148   C     0.66280   0.16950   0.28940   0.00000  Uiso   1.00
H149   H     0.66520   0.13010   0.27670   0.00000  Uiso   1.00
C150   C     0.62890   0.18600   0.34640   0.00000  Uiso   1.00
C151   C     0.62530   0.24480   0.36540   0.00000  Uiso   1.00
H152   H     0.60260   0.25590   0.40360   0.00000  Uiso   1.00
C153   C     0.65550   0.28710   0.32750   0.00000  Uiso   1.00
C154   C     0.68940   0.27060   0.27050   0.00000  Uiso   1.00
C155   C     0.69300   0.21180   0.25140   0.00000  Uiso   1.00
H156   H     0.71570   0.20070   0.21330   0.00000  Uiso   1.00
S157   S     0.64070   0.36340   0.36130   0.00000  Uiso   1.00
O158   O     0.69270   0.37860   0.35330   0.00000  Uiso   1.00
O159   O     0.61360   0.37420   0.30430   0.00000  Uiso   1.00
O160   O     0.61670   0.34580   0.41740   0.00000  Uiso   1.00
O161   O     0.15820   0.44080   0.93010   0.00000  Uiso   1.00
O162   O     0.08780   0.39070   0.87270   0.00000  Uiso   1.00
C163   C     0.13810   0.40230   0.88600   0.00000  Uiso   1.00
C164   C     0.16950   0.33720   0.78940   0.00000  Uiso   1.00
H165   H     0.13010   0.33480   0.77670   0.00000  Uiso   1.00
C166   C     0.18600   0.37110   0.84640   0.00000  Uiso   1.00
C167   C     0.24480   0.37470   0.86540   0.00000  Uiso   1.00
H168   H     0.25590   0.39740   0.90360   0.00000  Uiso   1.00
C169   C     0.28710   0.34450   0.82750   0.00000  Uiso   1.00
C170   C     0.27060   0.31060   0.77050   0.00000  Uiso   1.00
C171   C     0.21180   0.30700   0.75140   0.00000  Uiso   1.00
H172   H     0.20070   0.28430   0.71330   0.00000  Uiso   1.00
S173   S     0.36340   0.35930   0.86130   0.00000  Uiso   1.00
O174   O     0.37860   0.30730   0.85330   0.00000  Uiso   1.00
O175   O     0.37420   0.38640   0.80430   0.00000  Uiso   1.00
O176   O     0.34580   0.38330   0.91740   0.00000  Uiso   1.00
O177   O     0.84180   0.55920   0.93010   0.00000  Uiso   1.00
O178   O     0.91220   0.60930   0.87270   0.00000  Uiso   1.00
C179   C     0.86190   0.59770   0.88600   0.00000  Uiso   1.00
C180   C     0.83050   0.66280   0.78940   0.00000  Uiso   1.00
H181   H     0.86990   0.66520   0.77670   0.00000  Uiso   1.00
C182   C     0.81400   0.62890   0.84640   0.00000  Uiso   1.00
C183   C     0.75520   0.62530   0.86540   0.00000  Uiso   1.00
H184   H     0.74410   0.60260   0.90360   0.00000  Uiso   1.00
C185   C     0.71290   0.65550   0.82750   0.00000  Uiso   1.00
C186   C     0.72940   0.68940   0.77050   0.00000  Uiso   1.00
C187   C     0.78820   0.69300   0.75140   0.00000  Uiso   1.00
H188   H     0.79930   0.71570   0.71330   0.00000  Uiso   1.00
S189   S     0.63660   0.64070   0.86130   0.00000  Uiso   1.00
O190   O     0.62140   0.69270   0.85330   0.00000  Uiso   1.00
O191   O     0.62580   0.61360   0.80430   0.00000  Uiso   1.00
O192   O     0.65420   0.61670   0.91740   0.00000  Uiso   1.00
O193   O     0.55920   0.84180   0.56990   0.00000  Uiso   1.00
O194   O     0.60930   0.91220   0.62730   0.00000  Uiso   1.00
C195   C     0.59770   0.86190   0.61400   0.00000  Uiso   1.00
C196   C     0.66280   0.83050   0.71060   0.00000  Uiso   1.00
H197   H     0.66520   0.86990   0.72330   0.00000  Uiso   1.00
C198   C     0.62890   0.81400   0.65360   0.00000  Uiso   1.00
C199   C     0.62530   0.75520   0.63460   0.00000  Uiso   1.00
H200   H     0.60260   0.74410   0.59640   0.00000  Uiso   1.00
C201   C     0.65550   0.71290   0.67250   0.00000  Uiso   1.00
C202   C     0.68940   0.72940   0.72950   0.00000  Uiso   1.00
C203   C     0.69300   0.78820   0.74860   0.00000  Uiso   1.00
H204   H     0.71570   0.79930   0.78670   0.00000  Uiso   1.00
S205   S     0.64070   0.63660   0.63870   0.00000  Uiso   1.00
O206   O     0.69270   0.62140   0.64670   0.00000  Uiso   1.00
O207   O     0.61360   0.62580   0.69570   0.00000  Uiso   1.00
O208   O     0.61670   0.65420   0.58260   0.00000  Uiso   1.00
O209   O     0.44080   0.15820   0.56990   0.00000  Uiso   1.00
O210   O     0.39070   0.08780   0.62730   0.00000  Uiso   1.00
C211   C     0.40230   0.13810   0.61400   0.00000  Uiso   1.00
C212   C     0.33720   0.16950   0.71060   0.00000  Uiso   1.00
H213   H     0.33480   0.13010   0.72330   0.00000  Uiso   1.00
C214   C     0.37110   0.18600   0.65360   0.00000  Uiso   1.00
C215   C     0.37470   0.24480   0.63460   0.00000  Uiso   1.00
H216   H     0.39740   0.25590   0.59640   0.00000  Uiso   1.00
C217   C     0.34450   0.28710   0.67250   0.00000  Uiso   1.00
C218   C     0.31060   0.27060   0.72950   0.00000  Uiso   1.00
C219   C     0.30700   0.21180   0.74860   0.00000  Uiso   1.00
H220   H     0.28430   0.20070   0.78670   0.00000  Uiso   1.00
S221   S     0.35930   0.36340   0.63870   0.00000  Uiso   1.00
O222   O     0.30730   0.37860   0.64670   0.00000  Uiso   1.00
O223   O     0.38640   0.37420   0.69570   0.00000  Uiso   1.00
O224   O     0.38330   0.34580   0.58260   0.00000  Uiso   1.00
O225   O     0.84180   0.44080   0.06990   0.00000  Uiso   1.00
O226   O     0.91220   0.39070   0.12730   0.00000  Uiso   1.00
C227   C     0.86190   0.40230   0.11400   0.00000  Uiso   1.00
C228   C     0.83050   0.33720   0.21060   0.00000  Uiso   1.00
H229   H     0.86990   0.33480   0.22330   0.00000  Uiso   1.00
C230   C     0.81400   0.37110   0.15360   0.00000  Uiso   1.00
C231   C     0.75520   0.37470   0.13460   0.00000  Uiso   1.00
H232   H     0.74410   0.39740   0.09640   0.00000  Uiso   1.00
C233   C     0.71290   0.34450   0.17250   0.00000  Uiso   1.00
C234   C     0.72940   0.31060   0.22950   0.00000  Uiso   1.00
C235   C     0.78820   0.30700   0.24860   0.00000  Uiso   1.00
H236   H     0.79930   0.28430   0.28670   0.00000  Uiso   1.00
S237   S     0.63660   0.35930   0.13870   0.00000  Uiso   1.00
O238   O     0.62140   0.30730   0.14670   0.00000  Uiso   1.00
O239   O     0.62580   0.38640   0.19570   0.00000  Uiso   1.00
O240   O     0.65420   0.38330   0.08260   0.00000  Uiso   1.00
O241   O     0.15820   0.55920   0.06990   0.00000  Uiso   1.00
O242   O     0.08780   0.60930   0.12730   0.00000  Uiso   1.00
C243   C     0.13810   0.59770   0.11400   0.00000  Uiso   1.00
C244   C     0.16950   0.66280   0.21060   0.00000  Uiso   1.00
H245   H     0.13010   0.66520   0.22330   0.00000  Uiso   1.00
C246   C     0.18600   0.62890   0.15360   0.00000  Uiso   1.00
C247   C     0.24480   0.62530   0.13460   0.00000  Uiso   1.00
H248   H     0.25590   0.60260   0.09640   0.00000  Uiso   1.00
C249   C     0.28710   0.65550   0.17250   0.00000  Uiso   1.00
C250   C     0.27060   0.68940   0.22950   0.00000  Uiso   1.00
C251   C     0.21180   0.69300   0.24860   0.00000  Uiso   1.00
H252   H     0.20070   0.71570   0.28670   0.00000  Uiso   1.00
S253   S     0.36340   0.64070   0.13870   0.00000  Uiso   1.00
O254   O     0.37860   0.69270   0.14670   0.00000  Uiso   1.00
O255   O     0.37420   0.61360   0.19570   0.00000  Uiso   1.00
O256   O     0.34580   0.61670   0.08260   0.00000  Uiso   1.00
Zr257  Zr    0.50000   0.10807   0.50000   0.00000  Uiso   1.00
Zr258  Zr    0.50000   0.89193   0.50000   0.00000  Uiso   1.00
Zr259  Zr    0.89193   0.50000   0.00000   0.00000  Uiso   1.00
Zr260  Zr    0.10807   0.50000   0.00000   0.00000  Uiso   1.00
Zr261  Zr    0.42299   0.00000   0.59183   0.00000  Uiso   1.00
O262   O     0.43020   0.00000   0.70370   0.00000  Uiso   1.00
O263   O     0.32690   0.00000   0.58490   0.00000  Uiso   1.00
Zr264  Zr    0.57701   0.00000   0.59183   0.00000  Uiso   1.00
O265   O     0.56980   0.00000   0.70370   0.00000  Uiso   1.00
O266   O     0.67310   0.00000   0.58490   0.00000  Uiso   1.00
Zr267  Zr    0.00000   0.42299   0.09183   0.00000  Uiso   1.00
O268   O     0.00000   0.43020   0.20370   0.00000  Uiso   1.00
O269   O     0.00000   0.32690   0.08490   0.00000  Uiso   1.00
Zr270  Zr    0.00000   0.57701   0.09183   0.00000  Uiso   1.00
O271   O     0.00000   0.56980   0.20370   0.00000  Uiso   1.00
O272   O     0.00000   0.67310   0.08490   0.00000  Uiso   1.00
Zr273  Zr    0.57701   0.00000   0.40817   0.00000  Uiso   1.00
O274   O     0.56980   0.00000   0.29630   0.00000  Uiso   1.00
O275   O     0.67310   0.00000   0.41510   0.00000  Uiso   1.00
Zr276  Zr    0.42299   0.00000   0.40817   0.00000  Uiso   1.00
O277   O     0.43020   0.00000   0.29630   0.00000  Uiso   1.00
O278   O     0.32690   0.00000   0.41510   0.00000  Uiso   1.00
Zr279  Zr    0.00000   0.42299   0.90817   0.00000  Uiso   1.00
O280   O     0.00000   0.43020   0.79630   0.00000  Uiso   1.00
O281   O     0.00000   0.32690   0.91510   0.00000  Uiso   1.00
Zr282  Zr    0.00000   0.57701   0.90817   0.00000  Uiso   1.00
O283   O     0.00000   0.56980   0.79630   0.00000  Uiso   1.00
O284   O     0.00000   0.67310   0.91510   0.00000  Uiso   1.00
O285   O     0.50000   0.05200   0.59120   0.00000  Uiso   1.00
O286   O     0.50000   0.94800   0.59120   0.00000  Uiso   1.00
O287   O     0.94800   0.50000   0.09120   0.00000  Uiso   1.00
O288   O     0.05200   0.50000   0.09120   0.00000  Uiso   1.00
O289   O     0.50000   0.05200   0.40880   0.00000  Uiso   1.00
O290   O     0.50000   0.94800   0.40880   0.00000  Uiso   1.00
O291   O     0.05200   0.50000   0.90880   0.00000  Uiso   1.00
O292   O     0.94800   0.50000   0.90880   0.00000  Uiso   1.00
O293   O     0.42110   0.05480   0.50000   0.00000  Uiso   1.00
O294   O     0.57890   0.94520   0.50000   0.00000  Uiso   1.00
O295   O     0.94520   0.42110   0.00000   0.00000  Uiso   1.00
O296   O     0.05480   0.57890   0.00000   0.00000  Uiso   1.00
O297   O     0.57890   0.05480   0.50000   0.00000  Uiso   1.00
O298   O     0.42110   0.94520   0.50000   0.00000  Uiso   1.00
O299   O     0.05480   0.42110  -0.00000   0.00000  Uiso   1.00
O300   O     0.94520   0.57890  -0.00000   0.00000  Uiso   1.00
loop_
_geom_bond_atom_site_label_1
_geom_bond_atom_site_label_2
_geom_bond_distance
_geom_bond_site_symmetry_2
_ccdc_geom_bond_type
O1     Zr257   2.217   .     S
O1     C3      1.301   .     S
O2     C3      1.202   .     S
O2     Zr264   2.235   .     S
C3     C6      1.506   .     S
C4     H5      0.931   .     S
C4     C11     1.389   .     S
C4     C6      1.390   .     S
C6     C7      1.389   .     S
C7     H8      0.932   .     S
C7     C9      1.388   .     S
C9     C10     1.390   .     S
C9     S13     1.884   .     S
C10    C122    1.509   .     S
C10    C11     1.390   .     S
C11    H12     0.930   .     S
S13    O14     1.242   .     S
S13    O15     1.280   .     S
S13    O16     1.272   .     S
O17    Zr258   2.217   .     S
O17    C19     1.301   .     S
O18    C19     1.202   .     S
O18    Zr261   2.235   1_565 S
C19    C22     1.506   .     S
C20    H21     0.931   .     S
C20    C27     1.389   .     S
C20    C22     1.390   .     S
C22    C23     1.389   .     S
C23    H24     0.932   .     S
C23    C25     1.388   .     S
C25    C26     1.390   .     S
C25    S29     1.884   .     S
C26    C106    1.509   .     S
C26    C27     1.390   .     S
C27    H28     0.930   .     S
S29    O30     1.242   .     S
S29    O31     1.280   .     S
S29    O32     1.272   .     S
O33    Zr259   2.217   .     S
O33    C35     1.301   .     S
O34    C35     1.202   .     S
O34    Zr270   2.235   1_655 S
C35    C38     1.506   .     S
C36    H37     0.931   .     S
C36    C43     1.389   .     S
C36    C38     1.390   .     S
C38    C39     1.389   .     S
C39    H40     0.932   .     S
C39    C41     1.388   .     S
C41    C42     1.390   .     S
C41    S45     1.884   .     S
C42    C90     1.509   .     S
C42    C43     1.390   .     S
C43    H44     0.930   .     S
S45    O46     1.242   .     S
S45    O47     1.280   .     S
S45    O48     1.272   .     S
O49    Zr260   2.217   .     S
O49    C51     1.301   .     S
O50    C51     1.202   .     S
O50    Zr267   2.235   .     S
C51    C54     1.506   .     S
C52    H53     0.931   .     S
C52    C59     1.389   .     S
C52    C54     1.390   .     S
C54    C55     1.389   .     S
C55    H56     0.932   .     S
C55    C57     1.388   .     S
C57    C58     1.390   .     S
C57    S61     1.884   .     S
C58    C74     1.509   .     S
C58    C59     1.390   .     S
C59    H60     0.930   .     S
S61    O62     1.242   .     S
S61    O63     1.280   .     S
S61    O64     1.272   .     S
O65    Zr257   2.217   .     S
O65    C67     1.301   .     S
O66    C67     1.202   .     S
O66    Zr276   2.235   .     S
C67    C70     1.506   .     S
C68    H69     0.931   .     S
C68    C75     1.389   .     S
C68    C70     1.390   .     S
C70    C71     1.389   .     S
C71    H72     0.932   .     S
C71    C73     1.388   .     S
C73    C74     1.390   .     S
C73    S77     1.884   .     S
C74    C75     1.390   .     S
C75    H76     0.930   .     S
S77    O78     1.242   .     S
S77    O79     1.280   .     S
S77    O80     1.272   .     S
O81    Zr258   2.217   .     S
O81    C83     1.301   .     S
O82    C83     1.202   .     S
O82    Zr273   2.235   1_565 S
C83    C86     1.506   .     S
C84    H85     0.931   .     S
C84    C91     1.389   .     S
C84    C86     1.390   .     S
C86    C87     1.389   .     S
C87    H88     0.932   .     S
C87    C89     1.388   .     S
C89    C90     1.390   .     S
C89    S93     1.884   .     S
C90    C91     1.390   .     S
C91    H92     0.930   .     S
S93    O94     1.242   .     S
S93    O95     1.280   .     S
S93    O96     1.272   .     S
O97    Zr260   2.217   1_556 S
O97    C99     1.301   .     S
O98    C99     1.202   .     S
O98    Zr282   2.235   .     S
C99    C102    1.506   .     S
C100   H101    0.931   .     S
C100   C107    1.389   .     S
C100   C102    1.390   .     S
C102   C103    1.389   .     S
C103   H104    0.932   .     S
C103   C105    1.388   .     S
C105   C106    1.390   .     S
C105   S109    1.884   .     S
C106   C107    1.390   .     S
C107   H108    0.930   .     S
S109   O110    1.242   .     S
S109   O111    1.280   .     S
S109   O112    1.272   .     S
O113   Zr259   2.217   1_556 S
O113   C115    1.301   .     S
O114   C115    1.202   .     S
O114   Zr279   2.235   1_655 S
C115   C118    1.506   .     S
C116   H117    0.931   .     S
C116   C123    1.389   .     S
C116   C118    1.390   .     S
C118   C119    1.389   .     S
C119   H120    0.932   .     S
C119   C121    1.388   .     S
C121   C122    1.390   .     S
C121   S125    1.884   .     S
C122   C123    1.390   .     S
C123   H124    0.930   .     S
S125   O126    1.242   .     S
S125   O127    1.280   .     S
S125   O128    1.272   .     S
O129   Zr258   2.217   .     S
O129   C131    1.301   .     S
O130   C131    1.202   .     S
O130   Zr276   2.235   1_565 S
C131   C134    1.506   .     S
C132   H133    0.931   .     S
C132   C139    1.389   .     S
C132   C134    1.390   .     S
C134   C135    1.389   .     S
C135   H136    0.932   .     S
C135   C137    1.388   .     S
C137   C138    1.390   .     S
C137   S141    1.884   .     S
C138   C250    1.509   .     S
C138   C139    1.390   .     S
C139   H140    0.930   .     S
S141   O142    1.242   .     S
S141   O143    1.280   .     S
S141   O144    1.272   .     S
O145   Zr257   2.217   .     S
O145   C147    1.301   .     S
O146   C147    1.202   .     S
O146   Zr273   2.235   .     S
C147   C150    1.506   .     S
C148   H149    0.931   .     S
C148   C155    1.389   .     S
C148   C150    1.390   .     S
C150   C151    1.389   .     S
C151   H152    0.932   .     S
C151   C153    1.388   .     S
C153   C154    1.390   .     S
C153   S157    1.884   .     S
C154   C234    1.509   .     S
C154   C155    1.390   .     S
C155   H156    0.930   .     S
S157   O158    1.242   .     S
S157   O159    1.280   .     S
S157   O160    1.272   .     S
O161   Zr260   2.217   1_556 S
O161   C163    1.301   .     S
O162   C163    1.202   .     S
O162   Zr279   2.235   .     S
C163   C166    1.506   .     S
C164   H165    0.931   .     S
C164   C171    1.389   .     S
C164   C166    1.390   .     S
C166   C167    1.389   .     S
C167   H168    0.932   .     S
C167   C169    1.388   .     S
C169   C170    1.390   .     S
C169   S173    1.884   .     S
C170   C218    1.509   .     S
C170   C171    1.390   .     S
C171   H172    0.930   .     S
S173   O174    1.242   .     S
S173   O175    1.280   .     S
S173   O176    1.272   .     S
O177   Zr259   2.217   1_556 S
O177   C179    1.301   .     S
O178   C179    1.202   .     S
O178   Zr282   2.235   1_655 S
C179   C182    1.506   .     S
C180   H181    0.931   .     S
C180   C187    1.389   .     S
C180   C182    1.390   .     S
C182   C183    1.389   .     S
C183   H184    0.932   .     S
C183   C185    1.388   .     S
C185   C186    1.390   .     S
C185   S189    1.884   .     S
C186   C202    1.509   .     S
C186   C187    1.390   .     S
C187   H188    0.930   .     S
S189   O190    1.242   .     S
S189   O191    1.280   .     S
S189   O192    1.272   .     S
O193   Zr258   2.217   .     S
O193   C195    1.301   .     S
O194   C195    1.202   .     S
O194   Zr264   2.235   1_565 S
C195   C198    1.506   .     S
C196   H197    0.931   .     S
C196   C203    1.389   .     S
C196   C198    1.390   .     S
C198   C199    1.389   .     S
C199   H200    0.932   .     S
C199   C201    1.388   .     S
C201   C202    1.390   .     S
C201   S205    1.884   .     S
C202   C203    1.390   .     S
C203   H204    0.930   .     S
S205   O206    1.242   .     S
S205   O207    1.280   .     S
S205   O208    1.272   .     S
O209   Zr257   2.217   .     S
O209   C211    1.301   .     S
O210   C211    1.202   .     S
O210   Zr261   2.235   .     S
C211   C214    1.506   .     S
C212   H213    0.931   .     S
C212   C219    1.389   .     S
C212   C214    1.390   .     S
C214   C215    1.389   .     S
C215   H216    0.932   .     S
C215   C217    1.388   .     S
C217   C218    1.390   .     S
C217   S221    1.884   .     S
C218   C219    1.390   .     S
C219   H220    0.930   .     S
S221   O222    1.242   .     S
S221   O223    1.280   .     S
S221   O224    1.272   .     S
O225   Zr259   2.217   .     S
O225   C227    1.301   .     S
O226   C227    1.202   .     S
O226   Zr267   2.235   1_655 S
C227   C230    1.506   .     S
C228   H229    0.931   .     S
C228   C235    1.389   .     S
C228   C230    1.390   .     S
C230   C231    1.389   .     S
C231   H232    0.932   .     S
C231   C233    1.388   .     S
C233   C234    1.390   .     S
C233   S237    1.884   .     S
C234   C235    1.390   .     S
C235   H236    0.930   .     S
S237   O238    1.242   .     S
S237   O239    1.280   .     S
S237   O240    1.272   .     S
O241   Zr260   2.217   .     S
O241   C243    1.301   .     S
O242   C243    1.202   .     S
O242   Zr270   2.235   .     S
C243   C246    1.506   .     S
C244   H245    0.931   .     S
C244   C251    1.389   .     S
C244   C246    1.390   .     S
C246   C247    1.389   .     S
C247   H248    0.932   .     S
C247   C249    1.388   .     S
C249   C250    1.390   .     S
C249   S253    1.884   .     S
C250   C251    1.390   .     S
C251   H252    0.930   .     S
S253   O254    1.242   .     S
S253   O255    1.280   .     S
S253   O256    1.272   .     S
Zr257  O285    2.166   .     S
Zr257  O289    2.166   .     S
Zr257  O293    2.166   .     S
Zr257  O297    2.166   .     S
Zr258  O286    2.166   .     S
Zr258  O290    2.166   .     S
Zr258  O294    2.166   .     S
Zr258  O298    2.166   .     S
Zr259  O287    2.166   .     S
Zr259  O292    2.166   1_554 S
Zr259  O113    2.217   1_554 S
Zr259  O177    2.217   1_554 S
Zr259  O295    2.166   .     S
Zr259  O300    2.166   .     S
Zr260  O288    2.166   .     S
Zr260  O291    2.166   1_554 S
Zr260  O97     2.217   1_554 S
Zr260  O161    2.217   1_554 S
Zr260  O296    2.166   .     S
Zr260  O299    2.166   .     S
Zr261  O285    2.114   .     S
Zr261  O286    2.114   1_545 S
Zr261  O262    2.153   .     S
Zr261  O263    2.190   .     S
Zr261  O298    2.159   1_545 S
Zr261  O293    2.159   .     S
Zr261  O18     2.235   1_545 S
Zr264  O286    2.114   1_545 S
Zr264  O285    2.114   .     S
Zr264  O265    2.153   .     S
Zr264  O266    2.190   .     S
Zr264  O297    2.159   .     S
Zr264  O294    2.159   1_545 S
Zr264  O194    2.235   1_545 S
Zr267  O287    2.114   1_455 S
Zr267  O288    2.114   .     S
Zr267  O268    2.153   .     S
Zr267  O269    2.190   .     S
Zr267  O299    2.159   .     S
Zr267  O295    2.159   1_455 S
Zr267  O226    2.235   1_455 S
Zr270  O288    2.114   .     S
Zr270  O287    2.114   1_455 S
Zr270  O271    2.153   .     S
Zr270  O272    2.190   .     S
Zr270  O300    2.159   1_455 S
Zr270  O296    2.159   .     S
Zr270  O34     2.235   1_455 S
Zr273  O289    2.114   .     S
Zr273  O290    2.114   1_545 S
Zr273  O274    2.153   .     S
Zr273  O275    2.190   .     S
Zr273  O294    2.159   1_545 S
Zr273  O297    2.159   .     S
Zr273  O82     2.235   1_545 S
Zr276  O290    2.114   1_545 S
Zr276  O289    2.114   .     S
Zr276  O277    2.153   .     S
Zr276  O278    2.190   .     S
Zr276  O293    2.159   .     S
Zr276  O298    2.159   1_545 S
Zr276  O130    2.235   1_545 S
Zr279  O291    2.114   .     S
Zr279  O292    2.114   1_455 S
Zr279  O280    2.153   .     S
Zr279  O281    2.190   .     S
Zr279  O295    2.159   1_456 S
Zr279  O299    2.159   1_556 S
Zr279  O114    2.235   1_455 S
Zr282  O292    2.114   1_455 S
Zr282  O291    2.114   .     S
Zr282  O283    2.153   .     S
Zr282  O284    2.190   .     S
Zr282  O296    2.159   1_556 S
Zr282  O300    2.159   1_456 S
Zr282  O178    2.235   1_455 S
O286   Zr264   2.114   1_565 S
O286   Zr261   2.114   1_565 S
O287   Zr267   2.114   1_655 S
O287   Zr270   2.114   1_655 S
O290   Zr276   2.114   1_565 S
O290   Zr273   2.114   1_565 S
O291   Zr260   2.166   1_556 S
O292   Zr259   2.166   1_556 S
O292   Zr282   2.114   1_655 S
O292   Zr279   2.114   1_655 S
O294   Zr273   2.159   1_565 S
O294   Zr264   2.159   1_565 S
O295   Zr279   2.159   1_654 S
O295   Zr267   2.159   1_655 S
O296   Zr282   2.159   1_554 S
O298   Zr261   2.159   1_565 S
O298   Zr276   2.159   1_565 S
O299   Zr279   2.159   1_554 S
O300   Zr270   2.159   1_655 S
O300   Zr282   2.159   1_654 S
