data_MAVFEV03_FSR
_audit_creation_date              2024-06-11
_audit_creation_method            'Materials Studio'
_symmetry_space_group_name_H-M    'P1'
_symmetry_Int_Tables_number       1
_symmetry_cell_setting            triclinic
loop_
_symmetry_equiv_pos_as_xyz
  x,y,z
_cell_length_a                    9.6706
_cell_length_b                    11.7551
_cell_length_c                    12.3115
_cell_angle_alpha                 90.0000
_cell_angle_beta                  99.2690
_cell_angle_gamma                 90.0000
loop_
_atom_site_label
_atom_site_type_symbol
_atom_site_fract_x
_atom_site_fract_y
_atom_site_fract_z
_atom_site_U_iso_or_equiv
_atom_site_adp_type
_atom_site_occupancy
Eu1    Eu    0.28617   0.01554   0.16909   0.00000  Uiso   1.00
O2     O     0.36050   0.21540   0.15630   0.00000  Uiso   1.00
O3     O     0.45450   0.02310   0.34600   0.00000  Uiso   1.00
H4     H     0.48110   0.96110   0.37810   0.00000  Uiso   1.00
H5     H     0.40660   0.05910   0.38700   0.00000  Uiso   1.00
O6     O     0.19210   0.14080   0.29430   0.00000  Uiso   1.00
O7     O     0.31600   0.39480   0.20010   0.00000  Uiso   1.00
O8     O     0.13390   0.31971   0.32780   0.00000  Uiso   1.00
O9     O     0.31860   0.01180   0.97730   0.00000  Uiso   1.00
O10    O     0.46640   0.98630   0.85770   0.00000  Uiso   1.00
O11    O     0.10230   0.89110   0.06710   0.00000  Uiso   1.00
O12    O     0.91610   0.88190   0.93340   0.00000  Uiso   1.00
C13    C     0.30120   0.28900   0.20610   0.00000  Uiso   1.00
C14    C     0.19980   0.24520   0.28220   0.00000  Uiso   1.00
C15    C     0.43790   0.99900   0.95310   0.00000  Uiso   1.00
C16    C     0.00590   0.93410   0.00080   0.00000  Uiso   1.00
Eu17   Eu    0.21383   0.51554   0.33091   0.00000  Uiso   1.00
O18    O     0.13950   0.71540   0.34370   0.00000  Uiso   1.00
O19    O     0.04550   0.52310   0.15400   0.00000  Uiso   1.00
H20    H     0.01890   0.46110   0.12190   0.00000  Uiso   1.00
H21    H     0.09340   0.55910   0.11300   0.00000  Uiso   1.00
O22    O     0.30790   0.64080   0.20570   0.00000  Uiso   1.00
O23    O     0.18400   0.89480   0.29990   0.00000  Uiso   1.00
O24    O     0.36610   0.81971   0.17220   0.00000  Uiso   1.00
O25    O     0.18140   0.51180   0.52270   0.00000  Uiso   1.00
O26    O     0.03360   0.48630   0.64230   0.00000  Uiso   1.00
O27    O     0.39770   0.39110   0.43290   0.00000  Uiso   1.00
O28    O     0.58390   0.38190   0.56660   0.00000  Uiso   1.00
C29    C     0.19880   0.78900   0.29390   0.00000  Uiso   1.00
C30    C     0.30020   0.74520   0.21780   0.00000  Uiso   1.00
C31    C     0.06210   0.49900   0.54690   0.00000  Uiso   1.00
C32    C     0.49410   0.43410   0.49920   0.00000  Uiso   1.00
Eu33   Eu    0.71383   0.98446   0.83091   0.00000  Uiso   1.00
O34    O     0.63950   0.78460   0.84370   0.00000  Uiso   1.00
O35    O     0.54550   0.97690   0.65400   0.00000  Uiso   1.00
H36    H     0.51890   0.03890   0.62190   0.00000  Uiso   1.00
H37    H     0.59340   0.94090   0.61300   0.00000  Uiso   1.00
O38    O     0.80790   0.85920   0.70570   0.00000  Uiso   1.00
O39    O     0.68400   0.60520   0.79990   0.00000  Uiso   1.00
O40    O     0.86610   0.68029   0.67220   0.00000  Uiso   1.00
O41    O     0.68140   0.98820   0.02270   0.00000  Uiso   1.00
O42    O     0.53360   0.01370   0.14230   0.00000  Uiso   1.00
O43    O     0.89770   0.10890   0.93290   0.00000  Uiso   1.00
O44    O     0.08390   0.11810   0.06660   0.00000  Uiso   1.00
C45    C     0.69880   0.71100   0.79390   0.00000  Uiso   1.00
C46    C     0.80020   0.75480   0.71780   0.00000  Uiso   1.00
C47    C     0.56210   0.00100   0.04690   0.00000  Uiso   1.00
C48    C     0.99410   0.06590   0.99920   0.00000  Uiso   1.00
Eu49   Eu    0.78617   0.48446   0.66909   0.00000  Uiso   1.00
O50    O     0.86050   0.28460   0.65630   0.00000  Uiso   1.00
O51    O     0.95450   0.47690   0.84600   0.00000  Uiso   1.00
H52    H     0.98110   0.53890   0.87810   0.00000  Uiso   1.00
H53    H     0.90660   0.44090   0.88700   0.00000  Uiso   1.00
O54    O     0.69210   0.35920   0.79430   0.00000  Uiso   1.00
O55    O     0.81600   0.10520   0.70010   0.00000  Uiso   1.00
O56    O     0.63390   0.18029   0.82780   0.00000  Uiso   1.00
O57    O     0.81860   0.48820   0.47730   0.00000  Uiso   1.00
O58    O     0.96640   0.51370   0.35770   0.00000  Uiso   1.00
O59    O     0.60230   0.60890   0.56710   0.00000  Uiso   1.00
O60    O     0.41610   0.61810   0.43340   0.00000  Uiso   1.00
C61    C     0.80120   0.21100   0.70610   0.00000  Uiso   1.00
C62    C     0.69980   0.25480   0.78220   0.00000  Uiso   1.00
C63    C     0.93790   0.50100   0.45310   0.00000  Uiso   1.00
C64    C     0.50590   0.56590   0.50080   0.00000  Uiso   1.00
loop_
_geom_bond_atom_site_label_1
_geom_bond_atom_site_label_2
_geom_bond_distance
_geom_bond_site_symmetry_2
_ccdc_geom_bond_type
Eu1    O2      2.469   .     S
Eu1    O3      2.502   .     S
Eu1    O6      2.413   .     S
Eu1    O9      2.432   1_554 S
Eu1    O11     2.482   1_545 S
Eu1    O42     2.468   .     S
Eu1    O44     2.465   .     S
Eu1    O23     2.469   1_545 S
Eu1    O24     2.427   1_545 S
O2     C13     1.252   .     S
O3     H4      0.849   1_545 S
O3     H5      0.851   .     S
H4     O3      0.849   1_565 S
O6     C14     1.240   .     S
O7     C13     1.255   .     S
O7     Eu17    2.469   .     S
O8     C14     1.266   .     S
O8     Eu17    2.427   .     S
O9     Eu1     2.432   1_556 S
O9     C15     1.246   1_545 S
O10    C15     1.258   .     S
O10    Eu33    2.468   .     S
O11    Eu1     2.482   1_565 S
O11    C16     1.243   .     S
O12    C16     1.260   1_656 S
O12    Eu33    2.465   .     S
C13    C14     1.549   .     S
C15    O9      1.246   1_565 S
C15    C47     1.526   1_566 S
C16    O12     1.260   1_454 S
C16    C48     1.553   1_464 S
Eu17   O18     2.469   .     S
Eu17   O19     2.502   .     S
Eu17   O22     2.413   .     S
Eu17   O25     2.432   .     S
Eu17   O27     2.482   .     S
Eu17   O58     2.468   1_455 S
Eu17   O60     2.465   .     S
O18    C29     1.252   .     S
O19    H20     0.849   .     S
O19    H21     0.851   .     S
O22    C30     1.240   .     S
O23    C29     1.255   .     S
O23    Eu1     2.469   1_565 S
O24    C30     1.266   .     S
O24    Eu1     2.427   1_565 S
O25    C31     1.246   .     S
O26    C31     1.258   .     S
O26    Eu49    2.468   1_455 S
O27    C32     1.243   .     S
O28    C32     1.260   .     S
O28    Eu49    2.465   .     S
C29    C30     1.549   .     S
C31    C63     1.526   1_455 S
C32    C64     1.553   .     S
Eu33   O34     2.469   .     S
Eu33   O35     2.502   .     S
Eu33   O38     2.413   .     S
Eu33   O41     2.432   1_556 S
Eu33   O43     2.482   1_565 S
Eu33   O55     2.469   1_565 S
Eu33   O56     2.427   1_565 S
O34    C45     1.252   .     S
O35    H36     0.849   1_565 S
O35    H37     0.851   .     S
H36    O35     0.849   1_545 S
O38    C46     1.240   .     S
O39    C45     1.255   .     S
O39    Eu49    2.469   .     S
O40    C46     1.266   .     S
O40    Eu49    2.427   .     S
O41    Eu33    2.432   1_554 S
O41    C47     1.246   1_565 S
O42    C47     1.258   .     S
O43    Eu33    2.482   1_545 S
O43    C48     1.243   .     S
O44    C48     1.260   1_454 S
C45    C46     1.549   .     S
C47    O41     1.246   1_545 S
C47    C15     1.526   1_544 S
C48    O44     1.260   1_656 S
C48    C16     1.553   1_646 S
Eu49   O50     2.469   .     S
Eu49   O51     2.502   .     S
Eu49   O54     2.413   .     S
Eu49   O57     2.432   .     S
Eu49   O59     2.482   .     S
Eu49   O26     2.468   1_655 S
O50    C61     1.252   .     S
O51    H52     0.849   .     S
O51    H53     0.851   .     S
O54    C62     1.240   .     S
O55    C61     1.255   .     S
O55    Eu33    2.469   1_545 S
O56    C62     1.266   .     S
O56    Eu33    2.427   1_545 S
O57    C63     1.246   .     S
O58    C63     1.258   .     S
O58    Eu17    2.468   1_655 S
O59    C64     1.243   .     S
O60    C64     1.260   .     S
C61    C62     1.549   .     S
C63    C31     1.526   1_655 S
