data_MAZYUK_direct
_audit_creation_date              2024-06-11
_audit_creation_method            'Materials Studio'
_symmetry_space_group_name_H-M    'P1'
_symmetry_Int_Tables_number       1
_symmetry_cell_setting            triclinic
loop_
_symmetry_equiv_pos_as_xyz
  x,y,z
_cell_length_a                    12.0554
_cell_length_b                    14.9560
_cell_length_c                    36.8980
_cell_angle_alpha                 90.0000
_cell_angle_beta                  90.0000
_cell_angle_gamma                 90.0000
loop_
_atom_site_label
_atom_site_type_symbol
_atom_site_fract_x
_atom_site_fract_y
_atom_site_fract_z
_atom_site_U_iso_or_equiv
_atom_site_adp_type
_atom_site_occupancy
Zn1    Zn    0.03870   0.64086   0.81739   0.00000  Uiso   1.00
Zn2    Zn    0.50862   0.24681   0.56709   0.00000  Uiso   1.00
Zn3    Zn    0.03868   0.10103   0.53544   0.00000  Uiso   1.00
O1     O     0.33369   0.31077   0.61744   0.00000  Uiso   1.00
O2     O     0.44085   0.35875   0.57100   0.00000  Uiso   1.00
O3     O     1.05418   1.03314   0.67352   0.00000  Uiso   1.00
O4     O     0.02927   0.04000   0.61285   0.00000  Uiso   1.00
O5     O     0.39713   0.06133   0.58137   0.00000  Uiso   1.00
O6     O     0.48791   0.17662   0.60819   0.00000  Uiso   1.00
O7     O     0.79087   0.66928   0.81703   0.00000  Uiso   1.00
O8     O     0.95253   0.73336   0.79989   0.00000  Uiso   1.00
O9     O     0.28916   0.21589   0.54190   0.00000  Uiso   1.00
O10    O     0.46493   0.19183   0.52430   0.00000  Uiso   1.00
O11    O     0.38103   0.33812   0.35956   0.00000  Uiso   1.00
O12    O     0.51548   0.24887   0.38278   0.00000  Uiso   1.00
O13    O     0.13353   0.61279   0.78120   0.00000  Uiso   1.00
N1     N     0.16195   0.23476   0.43806   0.00000  Uiso   1.00
C1     C     0.36485   0.37337   0.59893   0.00000  Uiso   1.00
C2     C     0.32123   0.46478   0.60551   0.00000  Uiso   1.00
C3     C     0.22795   0.47917   0.62768   0.00000  Uiso   1.00
H1     H     0.18580   0.42337   0.64037   0.00000  Uiso   1.00
C4     C     0.18713   0.56586   0.63334   0.00000  Uiso   1.00
H2     H     0.11420   0.57474   0.65009   0.00000  Uiso   1.00
C5     C     0.23947   0.64016   0.61736   0.00000  Uiso   1.00
C6     C     0.33308   0.62553   0.59543   0.00000  Uiso   1.00
H3     H     0.37617   0.68131   0.58312   0.00000  Uiso   1.00
C7     C     0.37322   0.53896   0.58949   0.00000  Uiso   1.00
H4     H     0.44591   0.53025   0.57262   0.00000  Uiso   1.00
C8     C     0.19623   0.73252   0.62312   0.00000  Uiso   1.00
C9     C     0.16002   0.76070   0.65755   0.00000  Uiso   1.00
H5     H     0.16384   0.71598   0.68056   0.00000  Uiso   1.00
C10    C     0.11876   0.84731   0.66270   0.00000  Uiso   1.00
H6     H     1.09094   0.86686   0.68947   0.00000  Uiso   1.00
C11    C     0.11089   0.90720   0.63348   0.00000  Uiso   1.00
C12    C     0.14731   0.87931   0.59910   0.00000  Uiso   1.00
H7     H     0.14258   0.92413   0.57608   0.00000  Uiso   1.00
C13    C     0.19013   0.79322   0.59405   0.00000  Uiso   1.00
H8     H     0.21617   0.77345   0.56714   0.00000  Uiso   1.00
C14    C     0.06228   0.99717   0.63878   0.00000  Uiso   1.00
C15    C     0.46096   0.08632   0.60485   0.00000  Uiso   1.00
C16    C     0.51252   0.02183   0.63001   0.00000  Uiso   1.00
C17    C     0.62151   0.03718   0.64152   0.00000  Uiso   1.00
H9     H     0.66804   0.09318   0.63123   0.00000  Uiso   1.00
C18    C     0.67272   0.97991   0.66603   0.00000  Uiso   1.00
H10    H     0.75646   0.99507   0.67454   0.00000  Uiso   1.00
C19    C     0.61581   0.90579   0.68012   0.00000  Uiso   1.00
C20    C     0.50672   0.88902   0.66817   0.00000  Uiso   1.00
H11    H     0.46110   0.83183   0.67826   0.00000  Uiso   1.00
C21    C     0.45575   0.94619   0.64296   0.00000  Uiso   1.00
H12    H     0.37160   0.93253   0.63430   0.00000  Uiso   1.00
C22    C     0.66991   0.84963   0.70829   0.00000  Uiso   1.00
C23    C     0.78448   0.83226   0.70655   0.00000  Uiso   1.00
H13    H     0.83284   0.85270   0.68324   0.00000  Uiso   1.00
C24    C     0.83864   0.78969   0.73514   0.00000  Uiso   1.00
H14    H     0.92711   0.77802   0.73305   0.00000  Uiso   1.00
C25    C     0.77950   0.76228   0.76595   0.00000  Uiso   1.00
C26    C     0.66450   0.77685   0.76740   0.00000  Uiso   1.00
H15    H     0.61731   0.75716   0.79105   0.00000  Uiso   1.00
C27    C     0.61022   0.82030   0.73882   0.00000  Uiso   1.00
H16    H     0.52252   0.83452   0.74135   0.00000  Uiso   1.00
C28    C     0.83925   0.71842   0.79600   0.00000  Uiso   1.00
C29    C     0.35354   0.20602   0.51681   0.00000  Uiso   1.00
C30    C     0.31429   0.21370   0.47885   0.00000  Uiso   1.00
C31    C     0.20013   0.21692   0.47187   0.00000  Uiso   1.00
H17    H     0.14095   0.20919   0.49365   0.00000  Uiso   1.00
C32    C     0.23179   0.24957   0.40988   0.00000  Uiso   1.00
H18    H     0.19729   0.26398   0.38350   0.00000  Uiso   1.00
C33    C     0.34707   0.24834   0.41502   0.00000  Uiso   1.00
C34    C     0.38825   0.22770   0.44980   0.00000  Uiso   1.00
H19    H     0.47694   0.22801   0.45457   0.00000  Uiso   1.00
C35    C     0.42071   0.27680   0.38500   0.00000  Uiso   1.00
N2     N     0.30375   0.60634   0.75548   0.00000  Uiso   1.00
C36    C     0.23179   0.63204   0.78242   0.00000  Uiso   1.00
H20    H     0.26247   0.66887   0.80556   0.00000  Uiso   1.00
C37    C     0.42229   0.62598   0.75879   0.00000  Uiso   1.00
H21    H     0.44178   0.66060   0.78468   0.00000  Uiso   1.00
H22    H     0.44889   0.66941   0.73598   0.00000  Uiso   1.00
H23    H     0.47048   0.56268   0.75795   0.00000  Uiso   1.00
C38    C     0.26683   0.55716   0.72330   0.00000  Uiso   1.00
H24    H     0.17531   0.54954   0.72220   0.00000  Uiso   1.00
H25    H     0.30466   0.48961   0.72308   0.00000  Uiso   1.00
H26    H     0.29405   0.59329   0.69862   0.00000  Uiso   1.00
Zn4    Zn    0.46371   0.36785   0.31849   0.00000  Uiso   1.00
Zn5    Zn   -0.01670   0.74362   0.06840   0.00000  Uiso   1.00
Zn6    Zn    0.28102   0.87428   0.11077   0.00000  Uiso   1.00
O14    O     0.14665   0.68086   0.12223   0.00000  Uiso   1.00
O15    O     0.05226   0.63202   0.07312   0.00000  Uiso   1.00
O16    O     0.45544  -0.03581   0.17284   0.00000  Uiso   1.00
O17    O     0.51346   0.96860   0.11452   0.00000  Uiso   1.00
O18    O     0.08156   0.93118   0.08034   0.00000  Uiso   1.00
O19    O    -0.00095   0.81518   0.10936   0.00000  Uiso   1.00
O20    O     0.70847   0.32778   0.31835   0.00000  Uiso   1.00
O21    O     0.54261   0.27033   0.30160   0.00000  Uiso   1.00
O22    O     0.20561   0.77530   0.04340   0.00000  Uiso   1.00
O23    O     0.02919   0.79917   0.02613   0.00000  Uiso   1.00
O24    O     0.12213   0.68084   0.85653   0.00000  Uiso   1.00
O25    O     0.97319   0.73207   0.88771   0.00000  Uiso   1.00
O26    O     0.36581   0.39680   0.28352   0.00000  Uiso   1.00
N4     N     0.33064   0.77515   0.93861   0.00000  Uiso   1.00
C42    C     0.12452   0.61866   0.10220   0.00000  Uiso   1.00
C43    C     0.17576   0.52950   0.10818   0.00000  Uiso   1.00
C44    C     0.26127   0.51785   0.13372   0.00000  Uiso   1.00
H34    H     0.29112   0.57390   0.14955   0.00000  Uiso   1.00
C45    C     0.31034   0.43386   0.13883   0.00000  Uiso   1.00
H35    H     0.37737   0.42776   0.15820   0.00000  Uiso   1.00
C46    C     0.27488   0.35928   0.11864   0.00000  Uiso   1.00
C47    C     0.18862   0.37106   0.09337   0.00000  Uiso   1.00
H36    H     0.15765   0.31498   0.07782   0.00000  Uiso   1.00
C48    C     0.13993   0.45504   0.08815   0.00000  Uiso   1.00
H37    H     0.07359   0.46137   0.06851   0.00000  Uiso   1.00
C49    C     0.32699   0.26953   0.12383   0.00000  Uiso   1.00
C50    C     0.35941   0.24000   0.15847   0.00000  Uiso   1.00
H38    H     0.34921   0.28254   0.18192   0.00000  Uiso   1.00
C51    C     0.40348   0.15425   0.16344   0.00000  Uiso   1.00
H39    H     0.42702   0.13334   0.19048   0.00000  Uiso   1.00
C52    C     0.41844   0.09664   0.13379   0.00000  Uiso   1.00
C53    C     0.38895   0.12665   0.09903   0.00000  Uiso   1.00
H40    H     0.39967   0.08372   0.07564   0.00000  Uiso   1.00
C54    C     0.34335   0.21187   0.09413   0.00000  Uiso   1.00
H41    H     0.32164   0.23286   0.06696   0.00000  Uiso   1.00
C55    C     0.46553   0.00618   0.13925   0.00000  Uiso   1.00
C56    C     0.02233   0.90582   0.10500   0.00000  Uiso   1.00
C57    C    -0.02864   0.97052   0.13007   0.00000  Uiso   1.00
C58    C     0.85899   0.96111   0.13874   0.00000  Uiso   1.00
H42    H     0.80976   0.90945   0.12609   0.00000  Uiso   1.00
C59    C     0.80836   0.01886   0.16331   0.00000  Uiso   1.00
H43    H     0.72143   0.00877   0.16927   0.00000  Uiso   1.00
C60    C     0.86992   0.08600   0.18085   0.00000  Uiso   1.00
C61    C    -0.01788   0.09757   0.17109   0.00000  Uiso   1.00
H44    H     0.03103   0.15059   0.18305   0.00000  Uiso   1.00
C62    C     0.03219   0.04083   0.14558   0.00000  Uiso   1.00
H45    H     0.11869   0.05054   0.13863   0.00000  Uiso   1.00
C63    C     0.81746   0.14104   0.20990   0.00000  Uiso   1.00
C64    C     0.70417   0.16343   0.20810   0.00000  Uiso   1.00
H46    H     0.65492   0.14632   0.18457   0.00000  Uiso   1.00
C65    C     0.65252   0.20821   0.23669   0.00000  Uiso   1.00
H47    H     0.56502   0.22391   0.23450   0.00000  Uiso   1.00
C66    C     0.71320   0.23346   0.26750   0.00000  Uiso   1.00
C67    C     0.82686   0.21360   0.26911   0.00000  Uiso   1.00
H48    H     0.87508   0.23163   0.29278   0.00000  Uiso   1.00
C68    C     0.87836   0.16736   0.24071   0.00000  Uiso   1.00
H49    H     0.96482   0.14925   0.24358   0.00000  Uiso   1.00
C69    C     0.65659   0.28047   0.29744   0.00000  Uiso   1.00
C70    C     0.14067   0.78691   0.01849   0.00000  Uiso   1.00
C71    C     0.17943   0.78411   0.98048   0.00000  Uiso   1.00
C72    C     0.29306   0.78863   0.97278   0.00000  Uiso   1.00
H50    H     0.35267   0.79831   0.99437   0.00000  Uiso   1.00
C73    C     0.26051   0.75855   0.91062   0.00000  Uiso   1.00
H51    H     0.29505   0.74657   0.88404   0.00000  Uiso   1.00
C74    C     0.14588   0.75251   0.91648   0.00000  Uiso   1.00
C75    C     0.10519   0.76710   0.95174   0.00000  Uiso   1.00
H52    H     0.01734   0.75984   0.95717   0.00000  Uiso   1.00
C76    C     0.07344   0.72246   0.88638   0.00000  Uiso   1.00
H56    H     0.15230   0.48765   0.25555   0.00000  Uiso   1.00
H59    H     0.15049   0.30430   0.19849   0.00000  Uiso   1.00
N6     N     0.22929   0.36418   0.24375   0.00000  Uiso   1.00
C80    C     0.30524   0.34069   0.26963   0.00000  Uiso   1.00
H60    H     0.31310   0.27200   0.27835   0.00000  Uiso   1.00
C81    C     0.20783   0.45829   0.23479   0.00000  Uiso   1.00
H61    H     0.16640   0.46414   0.20803   0.00000  Uiso   1.00
H62    H     0.28641   0.49709   0.23359   0.00000  Uiso   1.00
C82    C     0.15646   0.29561   0.22830   0.00000  Uiso   1.00
H64    H     0.07260   0.30163   0.24039   0.00000  Uiso   1.00
H65    H     0.18869   0.22717   0.23354   0.00000  Uiso   1.00
Zn7    Zn    0.96432   0.13280   0.68208   0.00000  Uiso   1.00
Zn8    Zn    0.48349   0.75744   0.93221   0.00000  Uiso   1.00
Zn9    Zn    0.78811   0.61920   0.88974   0.00000  Uiso   1.00
O27    O     0.63990   0.82103   0.87659   0.00000  Uiso   1.00
O28    O     0.55256   0.86903   0.92722   0.00000  Uiso   1.00
O29    O    -0.04423   0.53745   0.82676   0.00000  Uiso   1.00
O30    O     1.02293   0.52662   0.88385   0.00000  Uiso   1.00
O31    O     0.58791   0.57178   0.91957   0.00000  Uiso   1.00
O32    O     0.49899   0.68588   0.89131   0.00000  Uiso   1.00
O33    O     0.21014   0.17094   0.68290   0.00000  Uiso   1.00
O34    O     0.04470   0.22872   0.70003   0.00000  Uiso   1.00
O35    O     0.70564   0.72855   0.95736   0.00000  Uiso   1.00
O36    O     0.52969   0.70158   0.97437   0.00000  Uiso   1.00
O37    O     0.62071   0.81902   0.14403   0.00000  Uiso   1.00
O38    O     0.47265   0.76461   0.11329   0.00000  Uiso   1.00
O39    O     0.86856   0.10119   0.71732   0.00000  Uiso   1.00
N7     N     0.83044   0.72562   0.06211   0.00000  Uiso   1.00
C83    C     0.62121   0.88275   0.89722   0.00000  Uiso   1.00
C84    C     0.67275   0.97163   0.89089   0.00000  Uiso   1.00
C85    C     0.75476   0.98319   0.86416   0.00000  Uiso   1.00
H67    H     0.78081   0.92746   0.84745   0.00000  Uiso   1.00
C86    C     0.80442   0.06687   0.85869   0.00000  Uiso   1.00
H68    H     0.86820   0.07299   0.83819   0.00000  Uiso   1.00
C87    C     0.77277   0.14122   0.87964   0.00000  Uiso   1.00
C88    C     0.68980   0.12956   0.90607   0.00000  Uiso   1.00
H69    H     0.66179   0.18551   0.92226   0.00000  Uiso   1.00
C89    C     0.64073   0.04589   0.91170   0.00000  Uiso   1.00
H70    H     0.57706   0.03971   0.93225   0.00000  Uiso   1.00
C90    C     0.82588   0.23054   0.87430   0.00000  Uiso   1.00
C91    C     0.85463   0.26142   0.83948   0.00000  Uiso   1.00
H71    H     0.84072   0.22022   0.81585   0.00000  Uiso   1.00
C92    C     0.89995   0.34688   0.83466   0.00000  Uiso   1.00
H72    H    -0.07957   0.36900   0.80751   0.00000  Uiso   1.00
C93    C     0.92024   0.40253   0.86461   0.00000  Uiso   1.00
C94    C     0.89418   0.37110   0.89944   0.00000  Uiso   1.00
H73    H     0.90880   0.41253   0.92304   0.00000  Uiso   1.00
C95    C     0.84701   0.28646   0.90420   0.00000  Uiso   1.00
H74    H     0.82784   0.26455   0.93144   0.00000  Uiso   1.00
C96    C     0.96960   0.49233   0.85953   0.00000  Uiso   1.00
C97    C     0.52633   0.59592   0.89533   0.00000  Uiso   1.00
C98    C     0.47634   0.53047   0.87041   0.00000  Uiso   1.00
C99    C     0.36358   0.53835   0.86218   0.00000  Uiso   1.00
H75    H     0.31350   0.58912   0.87508   0.00000  Uiso   1.00
C100   C     0.31360   0.48052   0.83756   0.00000  Uiso   1.00
H76    H     0.22639   0.48993   0.83192   0.00000  Uiso   1.00
C101   C     0.37593   0.41460   0.81955   0.00000  Uiso   1.00
C102   C     0.48880   0.40452   0.82887   0.00000  Uiso   1.00
H77    H     0.53864   0.35250   0.81661   0.00000  Uiso   1.00
C103   C     0.53838   0.46151   0.85443   0.00000  Uiso   1.00
H78    H     0.62536   0.45316   0.86102   0.00000  Uiso   1.00
C104   C     0.32300   0.35923   0.79063   0.00000  Uiso   1.00
C105   C     0.20950   0.33753   0.79263   0.00000  Uiso   1.00
H79    H     0.16054   0.35527   0.81612   0.00000  Uiso   1.00
C106   C     0.15698   0.29248   0.76431   0.00000  Uiso   1.00
H80    H     0.06935   0.27761   0.76674   0.00000  Uiso   1.00
C107   C     0.21682   0.26587   0.73354   0.00000  Uiso   1.00
C108   C     0.33089   0.28459   0.73179   0.00000  Uiso   1.00
H81    H     0.37884   0.26495   0.70827   0.00000  Uiso   1.00
C109   C     0.38322   0.33166   0.75985   0.00000  Uiso   1.00
H82    H     0.46991   0.34887   0.75682   0.00000  Uiso   1.00
C110   C     0.15897   0.21857   0.70385   0.00000  Uiso   1.00
C111   C     0.64084   0.71506   0.98215   0.00000  Uiso   1.00
C112   C     0.67936   0.71683   0.02019   0.00000  Uiso   1.00
C113   C     0.79298   0.71278   0.02789   0.00000  Uiso   1.00
H83    H     0.85265   0.70397   0.00627   0.00000  Uiso   1.00
C114   C     0.76013   0.74104   0.09016   0.00000  Uiso   1.00
H84    H     0.79452   0.75257   0.11680   0.00000  Uiso   1.00
C115   C     0.64542   0.74650   0.08431   0.00000  Uiso   1.00
C116   C     0.60491   0.73254   0.04898   0.00000  Uiso   1.00
H85    H     0.51702   0.73950   0.04356   0.00000  Uiso   1.00
C117   C     0.57265   0.77588   0.11443   0.00000  Uiso   1.00
H89    H     0.65831   0.00420   0.75029   0.00000  Uiso   1.00
N9     N     0.72849   0.13272   0.75601   0.00000  Uiso   1.00
C121   C     0.80417   0.15608   0.72994   0.00000  Uiso   1.00
H93    H     0.80751   0.22401   0.71986   0.00000  Uiso   1.00
C122   C     0.71666   0.03987   0.76828   0.00000  Uiso   1.00
H94    H     0.68193   0.03783   0.79602   0.00000  Uiso   1.00
H95    H     0.79779   0.00475   0.76867   0.00000  Uiso   1.00
C123   C     0.64892   0.19898   0.76930   0.00000  Uiso   1.00
H97    H     0.56516   0.18369   0.75854   0.00000  Uiso   1.00
H98    H     0.67208   0.26772   0.76083   0.00000  Uiso   1.00
H99    H     0.64606   0.19775   0.79936   0.00000  Uiso   1.00
Zn10   Zn    0.53728   0.86070   0.18288   0.00000  Uiso   1.00
Zn11   Zn    1.00860   0.25380   0.43318   0.00000  Uiso   1.00
Zn12   Zn    0.54287   0.39138   0.46035   0.00000  Uiso   1.00
O40    O     0.83221   0.19190   0.38277   0.00000  Uiso   1.00
O41    O     0.94038   0.14222   0.42867   0.00000  Uiso   1.00
O42    O     0.55363   0.46884   0.32448   0.00000  Uiso   1.00
O43    O     0.54900   0.45495   0.38533   0.00000  Uiso   1.00
O44    O     0.89715   0.43939   0.41968   0.00000  Uiso   1.00
O45    O     0.98895   0.32524   0.39244   0.00000  Uiso   1.00
O46    O     0.28878   0.83414   0.18452   0.00000  Uiso   1.00
O47    O     0.45056   0.76938   0.20116   0.00000  Uiso   1.00
O48    O     0.78890   0.28418   0.45822   0.00000  Uiso   1.00
O49    O     0.96468   0.30770   0.47603   0.00000  Uiso   1.00
O50    O     0.87823   0.16729   0.64253   0.00000  Uiso   1.00
O51    O     0.02033   0.23812   0.61444   0.00000  Uiso   1.00
O52    O     0.63247   0.88949   0.21882   0.00000  Uiso   1.00
N10    N     0.66227   0.26527   0.56227   0.00000  Uiso   1.00
C124   C     0.86374   0.12864   0.40084   0.00000  Uiso   1.00
C125   C     0.81989   0.03749   0.39388   0.00000  Uiso   1.00
C126   C     0.72512   0.02377   0.37230   0.00000  Uiso   1.00
H100   H     0.68211   0.07999   0.36023   0.00000  Uiso   1.00
C127   C     0.68400   0.93720   0.36646   0.00000  Uiso   1.00
H101   H     0.61007   0.92872   0.35015   0.00000  Uiso   1.00
C128   C     0.73766   0.86240   0.38159   0.00000  Uiso   1.00
C129   C     0.83287   0.87642   0.40285   0.00000  Uiso   1.00
H102   H     0.87708   0.82029   0.41445   0.00000  Uiso   1.00
C130   C     0.87324   0.96280   0.40899   0.00000  Uiso   1.00
H103   H     0.94726   0.97099   0.42529   0.00000  Uiso   1.00
C131   C     0.69474   0.77001   0.37557   0.00000  Uiso   1.00
C132   C     0.65820   0.74209   0.34115   0.00000  Uiso   1.00
H104   H     0.66031   0.78754   0.31834   0.00000  Uiso   1.00
C133   C     0.61959   0.65465   0.33571   0.00000  Uiso   1.00
H105   H     0.59216   0.63522   0.30888   0.00000  Uiso   1.00
C134   C     0.61484   0.59364   0.36470   0.00000  Uiso   1.00
C135   C     0.65089   0.62172   0.39910   0.00000  Uiso   1.00
H106   H     0.64827   0.57636   0.42197   0.00000  Uiso   1.00
C136   C     0.69085   0.70855   0.40440   0.00000  Uiso   1.00
H107   H     0.71695   0.72819   0.43132   0.00000  Uiso   1.00
C137   C     0.57038   0.50203   0.35932   0.00000  Uiso   1.00
C138   C     0.96174   0.41537   0.39626   0.00000  Uiso   1.00
C139   C     1.01359   0.48080   0.37156   0.00000  Uiso   1.00
C140   C     0.12267   0.46580   0.36003   0.00000  Uiso   1.00
H108   H     0.16929   0.40959   0.37015   0.00000  Uiso   1.00
C141   C     0.17367   0.52348   0.33562   0.00000  Uiso   1.00
H109   H     0.25726   0.50843   0.32686   0.00000  Uiso   1.00
C142   C     0.11645   0.59768   0.32175   0.00000  Uiso   1.00
C143   C     1.00756   0.61441   0.33388   0.00000  Uiso   1.00
H110   H     0.96191   0.67179   0.32396   0.00000  Uiso   1.00
C144   C     0.95678   0.55678   0.35895   0.00000  Uiso   1.00
H111   H     0.87269   0.57027   0.36771   0.00000  Uiso   1.00
C145   C     0.16988   0.65375   0.29346   0.00000  Uiso   1.00
C146   C     0.28396   0.67284   0.29538   0.00000  Uiso   1.00
H112   H     0.33221   0.65348   0.31887   0.00000  Uiso   1.00
C147   C     0.33767   0.71558   0.26672   0.00000  Uiso   1.00
H113   H     0.42585   0.72850   0.26888   0.00000  Uiso   1.00
C148   C     0.27841   0.74136   0.23569   0.00000  Uiso   1.00
C149   C     0.16387   0.72486   0.23406   0.00000  Uiso   1.00
H114   H     0.11680   0.74307   0.21019   0.00000  Uiso   1.00
C150   C     0.11014   0.68114   0.26267   0.00000  Uiso   1.00
H115   H     0.02290   0.66530   0.26004   0.00000  Uiso   1.00
C151   C     0.33756   0.78494   0.20544   0.00000  Uiso   1.00
C152   C     0.85335   0.29333   0.48338   0.00000  Uiso   1.00
C153   C     0.81413   0.28482   0.52122   0.00000  Uiso   1.00
C154   C     0.70016   0.28302   0.52847   0.00000  Uiso   1.00
H116   H     0.64068   0.29166   0.50680   0.00000  Uiso   1.00
C155   C     0.73263   0.24989   0.59036   0.00000  Uiso   1.00
H117   H     0.69836   0.23656   0.61685   0.00000  Uiso   1.00
C156   C     0.84773   0.24884   0.58485   0.00000  Uiso   1.00
C157   C     0.88846   0.26866   0.54996   0.00000  Uiso   1.00
H118   H     0.97687   0.26641   0.54486   0.00000  Uiso   1.00
C158   C     0.92206   0.21933   0.61455   0.00000  Uiso   1.00
N11    N     0.80141   0.88900   0.24553   0.00000  Uiso   1.00
C159   C     0.72859   0.86421   0.21867   0.00000  Uiso   1.00
H119   H     0.75670   0.82206   0.19668   0.00000  Uiso   1.00
C160   C     0.91667   0.85856   0.24427   0.00000  Uiso   1.00
H120   H     0.93293   0.81601   0.22017   0.00000  Uiso   1.00
H121   H     0.93559   0.81904   0.26900   0.00000  Uiso   1.00
H122   H     0.97316   0.91717   0.24311   0.00000  Uiso   1.00
C161   C     0.76858   0.94650   0.27585   0.00000  Uiso   1.00
H123   H     0.67942   0.96492   0.27494   0.00000  Uiso   1.00
H124   H     0.81838   1.00876   0.27547   0.00000  Uiso   1.00
H125   H     0.78528   0.91128   0.30168   0.00000  Uiso   1.00
loop_
_geom_bond_atom_site_label_1
_geom_bond_atom_site_label_2
_geom_bond_distance
_geom_bond_site_symmetry_2
_ccdc_geom_bond_type
Zn1    O8      1.847   1_455 S
Zn1    O13     1.807   .     S
Zn1    O24     1.859   .     S
Zn1    O29     1.874   .     S
Zn2    O2      1.868   .     S
Zn2    O6      1.861   .     S
Zn2    O10     1.856   .     S
Zn2    N10     1.881   .     S
O1     C1      1.218   .     D
O2     C1      1.396   .     S
O3     C14     1.394   1_655 S
O3     Zn7     1.869   1_565 S
O4     C14     1.218   1_545 D
O5     C15     1.218   .     D
O6     C15     1.395   .     S
O7     C28     1.218   .     D
O8     Zn1     1.847   1_655 S
O8     C28     1.391   .     S
O9     C29     1.217   .     D
O10    C29     1.387   .     S
O11    C35     1.397   .     S
O11    Zn4     1.867   .     S
O12    C35     1.219   .     D
O13    C36     1.220   .     D
N1     C31     1.356   .     A
N1     C32     1.356   .     A
N1     Zn11    1.879   1_455 S
C1     C2      1.485   .     S
C2     C3      1.407   .     A
C2     C7      1.405   .     A
C3     H1      1.083   .     S
C3     C4      1.402   .     A
C4     H2      1.083   .     S
C4     C5      1.407   .     A
C5     C6      1.406   .     A
C5     C8      1.492   .     S
C6     H3      1.083   .     S
C6     C7      1.399   .     A
C7     H4      1.083   .     S
C8     C9      1.408   .     A
C8     C13     1.407   .     A
C9     H5      1.082   .     S
C9     C10     1.401   .     A
C10    H6      1.083   1_455 S
C10    C11     1.405   .     A
H6     C10     1.083   1_655 S
C11    C12     1.406   .     A
C11    C14     1.481   .     S
C12    H7      1.083   .     S
C12    C13     1.400   .     A
C13    H8      1.083   .     S
C14    O4      1.218   1_565 D
C14    O3      1.394   1_455 S
C15    C16     1.476   .     S
C16    C17     1.400   .     A
C16    C21     1.406   1_545 A
C17    H9      1.077   .     S
C17    C18     1.390   1_545 A
C18    C17     1.390   1_565 A
C18    H10     1.081   .     S
C18    C19     1.404   .     A
C19    C20     1.410   .     A
C19    C22     1.487   .     S
C20    H11     1.083   .     S
C20    C21     1.405   .     A
C21    C16     1.406   1_565 A
C21    H12     1.083   .     S
C22    C23     1.407   .     A
C22    C27     1.407   .     A
C23    H13     1.083   .     S
C23    C24     1.394   .     A
C24    H14     1.084   .     S
C24    C25     1.403   .     A
C25    C26     1.404   .     A
C25    C28     1.476   .     S
C26    H15     1.083   .     S
C26    C27     1.401   .     A
C27    H16     1.082   .     S
C29    C30     1.483   .     S
C30    C31     1.401   .     A
C30    C34     1.410   .     A
C31    H17     1.081   .     S
C32    H18     1.080   .     S
C32    C33     1.403   .     A
C33    C34     1.410   .     A
C33    C35     1.482   .     S
C34    H19     1.084   .     S
N2     C36     1.374   .     S
N2     C37     1.464   .     S
N2     C38     1.466   .     S
C36    H20     1.081   .     S
C37    H21     1.112   .     S
C37    H22     1.111   .     S
C37    H23     1.111   .     S
C38    H24     1.110   .     S
C38    H25     1.109   .     S
C38    H26     1.108   .     S
Zn4    O21     1.849   .     S
Zn4    O26     1.802   .     S
Zn4    O42     1.872   .     S
Zn5    O15     1.873   .     S
Zn5    O19     1.862   .     S
Zn5    O23     1.852   .     S
Zn5    N7      1.877   1_455 S
O14    C42     1.218   .     D
O15    C42     1.397   .     S
O16    C55     1.395   .     S
O16    Zn10    1.873   1_545 S
O17    C55     1.217   1_565 D
O18    C56     1.217   .     D
O19    C56     1.394   .     S
O20    C69     1.219   .     D
O21    C69     1.391   .     S
O22    C70     1.220   .     D
O23    C70     1.385   .     S
O24    C76     1.395   .     S
O25    C76     1.218   1_655 D
O26    C80     1.225   .     D
N4     C72     1.355   .     A
N4     C73     1.357   .     A
N4     Zn8     1.877   .     S
C42    C43     1.486   .     S
C43    C44     1.407   .     A
C43    C48     1.405   .     A
C44    H34     1.083   .     S
C44    C45     1.401   .     A
C45    H35     1.083   .     S
C45    C46     1.408   .     A
C46    C47     1.408   .     A
C46    C49     1.494   .     S
C47    H36     1.083   .     S
C47    C48     1.400   .     A
C48    H37     1.083   .     S
C49    C50     1.408   .     A
C49    C54     1.408   .     A
C50    H38     1.081   .     S
C50    C51     1.400   .     A
C51    H39     1.083   .     S
C51    C52     1.404   .     A
C52    C53     1.405   .     A
C52    C55     1.481   .     S
C53    H40     1.083   .     S
C53    C54     1.400   .     A
C54    H41     1.082   .     S
C55    O17     1.217   1_545 D
C56    C57     1.473   .     S
C57    C58     1.399   1_455 A
C57    C62     1.404   1_565 A
C58    C57     1.399   1_655 A
C58    H42     1.080   .     S
C58    C59     1.393   1_565 A
C59    C58     1.393   1_545 A
C59    H43     1.081   .     S
C59    C60     1.406   .     A
C60    C61     1.410   1_655 A
C60    C63     1.492   .     S
C61    C60     1.410   1_455 A
C61    H44     1.082   .     S
C61    C62     1.404   .     A
C62    C57     1.404   1_545 A
C62    H45     1.084   .     S
C63    C64     1.408   .     A
C63    C68     1.409   .     A
C64    H46     1.082   .     S
C64    C65     1.396   .     A
C65    H47     1.084   .     S
C65    C66     1.404   .     A
C66    C67     1.403   .     A
C66    C69     1.476   .     S
C67    H48     1.083   .     S
C67    C68     1.401   .     A
C68    H49     1.082   .     S
C70    C71     1.479   1_554 S
C71    C70     1.479   1_556 S
C71    C72     1.401   .     A
C71    C75     1.411   .     A
C72    H50     1.083   .     S
C73    H51     1.080   .     S
C73    C74     1.402   .     A
C74    C75     1.408   .     A
C74    C76     1.483   .     S
C75    H52     1.083   .     S
C76    O25     1.218   1_455 D
H56    C81     1.108   .     S
H59    C82     1.110   .     S
N6     C80     1.369   .     S
N6     C81     1.469   .     S
N6     C82     1.466   .     S
C80    H60     1.081   .     S
C81    H61     1.110   .     S
C81    H62     1.112   .     S
C82    H64     1.109   .     S
C82    H65     1.112   .     S
Zn7    O3      1.869   1_545 S
Zn7    O34     1.854   1_655 S
Zn7    O39     1.802   .     S
Zn7    O50     1.864   .     S
Zn8    O28     1.874   .     S
Zn8    O32     1.860   .     S
Zn8    O36     1.851   .     S
O27    C83     1.218   .     D
O28    C83     1.397   .     S
O29    C96     1.395   1_455 S
O30    C96     1.217   .     D
O31    C97     1.217   .     D
O32    C97     1.393   .     S
O33    C110    1.219   .     D
O34    Zn7     1.854   1_455 S
O34    C110    1.393   .     S
O35    C111    1.220   .     D
O36    C111    1.385   .     S
O37    C117    1.394   .     S
O37    Zn10    1.859   .     S
O38    C117    1.218   .     D
O39    C121    1.222   .     D
N7     Zn5     1.877   1_655 S
N7     C113    1.355   .     A
N7     C114    1.357   .     A
C83    C84     1.486   .     S
C84    C85     1.407   .     A
C84    C89     1.404   1_565 A
C85    H67     1.083   .     S
C85    C86     1.402   1_565 A
C86    C85     1.402   1_545 A
C86    H68     1.083   .     S
C86    C87     1.407   .     A
C87    C88     1.408   .     A
C87    C90     1.494   .     S
C88    H69     1.082   .     S
C88    C89     1.400   .     A
C89    C84     1.404   1_545 A
C89    H70     1.083   .     S
C90    C91     1.408   .     A
C90    C95     1.408   .     A
C91    H71     1.081   .     S
C91    C92     1.401   .     A
C92    H72     1.083   1_655 S
C92    C93     1.405   .     A
H72    C92     1.083   1_455 S
C93    C94     1.404   .     A
C93    C96     1.481   .     S
C94    H73     1.083   .     S
C94    C95     1.399   .     A
C95    H74     1.082   .     S
C96    O29     1.395   1_655 S
C97    C98     1.472   .     S
C98    C99     1.398   .     A
C98    C103    1.404   .     A
C99    H75     1.081   .     S
C99    C100    1.391   .     A
C100   H76     1.081   .     S
C100   C101    1.407   .     A
C101   C102    1.411   .     A
C101   C104    1.494   .     S
C102   H77     1.082   .     S
C102   C103    1.405   .     A
C103   H78     1.084   .     S
C104   C105    1.408   .     A
C104   C109    1.410   .     A
C105   H79     1.082   .     S
C105   C106    1.395   .     A
C106   H80     1.083   .     S
C106   C107    1.403   .     A
C107   C108    1.405   .     A
C107   C110    1.479   .     S
C108   H81     1.083   .     S
C108   C109    1.402   .     A
C109   H82     1.082   .     S
C111   C112    1.479   1_556 S
C112   C111    1.479   1_554 S
C112   C113    1.400   .     A
C112   C116    1.411   .     A
C113   H83     1.082   .     S
C114   H84     1.080   .     S
C114   C115    1.402   .     A
C115   C116    1.408   .     A
C115   C117    1.483   .     S
C116   H85     1.083   .     S
H89    C122    1.105   .     S
N9     C121    1.371   .     S
N9     C122    1.468   .     S
N9     C123    1.464   .     S
C121   H93     1.083   .     S
C122   H94     1.106   .     S
C122   H95     1.110   .     S
C123   H97     1.109   .     S
C123   H98     1.110   .     S
C123   H99     1.110   .     S
Zn10   O16     1.873   1_565 S
Zn10   O47     1.847   .     S
Zn10   O52     1.806   .     S
Zn11   N1      1.879   1_655 S
Zn11   O41     1.868   .     S
Zn11   O45     1.859   .     S
Zn11   O49     1.852   .     S
O40    C124    1.218   .     D
O41    C124    1.396   .     S
O42    C137    1.393   .     S
O43    C137    1.218   .     D
O44    C138    1.217   .     D
O45    C138    1.394   .     S
O46    C151    1.218   .     D
O47    C151    1.391   .     S
O48    C152    1.218   .     D
O49    C152    1.386   .     S
O50    C158    1.397   .     S
O51    C158    1.218   1_455 D
O52    C159    1.219   .     D
N10    C154    1.355   .     A
N10    C155    1.359   .     A
C124   C125    1.485   .     S
C125   C126    1.408   .     A
C125   C130    1.404   1_545 A
C126   H100    1.084   .     S
C126   C127    1.403   1_545 A
C127   C126    1.403   1_565 A
C127   H101    1.083   .     S
C127   C128    1.408   .     A
C128   C129    1.406   .     A
C128   C131    1.492   .     S
C129   H102    1.083   .     S
C129   C130    1.399   .     A
C130   C125    1.404   1_565 A
C130   H103    1.083   .     S
C131   C132    1.408   .     A
C131   C136    1.407   .     A
C132   H104    1.082   .     S
C132   C133    1.403   .     A
C133   H105    1.084   .     S
C133   C134    1.407   .     A
C134   C135    1.406   .     A
C134   C137    1.485   .     S
C135   H106    1.083   .     S
C135   C136    1.399   .     A
C136   H107    1.083   .     S
C138   C139    1.476   .     S
C139   C140    1.400   1_655 A
C139   C144    1.406   .     A
C140   C139    1.400   1_455 A
C140   H108    1.078   .     S
C140   C141    1.390   .     A
C141   H109    1.082   .     S
C141   C142    1.403   .     A
C142   C143    1.409   1_455 A
C142   C145    1.486   .     S
C143   C142    1.409   1_655 A
C143   H110    1.083   .     S
C143   C144    1.405   .     A
C144   H111    1.083   .     S
C145   C146    1.406   .     A
C145   C150    1.406   .     A
C146   H112    1.083   .     S
C146   C147    1.395   .     A
C147   H113    1.083   .     S
C147   C148    1.404   .     A
C148   C149    1.404   .     A
C148   C151    1.476   .     S
C149   H114    1.083   .     S
C149   C150    1.401   .     A
C150   H115    1.082   .     S
C152   C153    1.480   .     S
C153   C154    1.400   .     A
C153   C157    1.409   .     A
C154   H116    1.082   .     S
C155   H117    1.080   .     S
C155   C156    1.403   .     A
C156   C157    1.409   .     A
C156   C158    1.483   .     S
C157   H118    1.083   .     S
C158   O51     1.218   1_655 D
N11    C159    1.375   .     S
N11    C160    1.463   .     S
N11    C161    1.466   .     S
C159   H119    1.082   .     S
C160   H120    1.111   .     S
C160   H121    1.111   .     S
C160   H122    1.111   .     S
C161   H123    1.110   .     S
C161   H124    1.108   .     S
C161   H125    1.108   .     S
