data_MEZGAD_FSR
_audit_creation_date              2024-06-11
_audit_creation_method            'Materials Studio'
_symmetry_space_group_name_H-M    'P1'
_symmetry_Int_Tables_number       1
_symmetry_cell_setting            triclinic
loop_
_symmetry_equiv_pos_as_xyz
  x,y,z
_cell_length_a                    21.6596
_cell_length_b                    10.1234
_cell_length_c                    15.4018
_cell_angle_alpha                 90.0000
_cell_angle_beta                  98.6440
_cell_angle_gamma                 90.0000
loop_
_atom_site_label
_atom_site_type_symbol
_atom_site_fract_x
_atom_site_fract_y
_atom_site_fract_z
_atom_site_U_iso_or_equiv
_atom_site_adp_type
_atom_site_occupancy
Zn1    Zn    0.96125   0.37413   0.56044   0.00000  Uiso   1.00
O2     O     0.03169   0.59318   0.56720   0.00000  Uiso   1.00
O3     O     0.04750   0.39465   0.62390   0.00000  Uiso   1.00
O4     O     0.94627   0.18054   0.54658   0.00000  Uiso   1.00
N5     N     0.49638   0.82520   0.85606   0.00000  Uiso   1.00
C6     C     0.49930   0.91330   0.92976   0.00000  Uiso   1.00
O7     O     0.91492   0.41410   0.68575   0.00000  Uiso   1.00
C8     C     0.54990   0.76220   0.73459   0.00000  Uiso   1.00
H9     H     0.51180   0.76920   0.69530   0.00000  Uiso   1.00
C10    C     0.66064   0.71230   0.75863   0.00000  Uiso   1.00
O11    O     0.88380   0.48810   0.55515   0.00000  Uiso   1.00
C12    C     0.53224   0.03250   0.93085   0.00000  Uiso   1.00
H13    H     0.55400   0.05520   0.88380   0.00000  Uiso   1.00
N14    N     0.93782   0.96780   0.57884   0.00000  Uiso   1.00
C15    C     0.43740   0.77560   0.82014   0.00000  Uiso   1.00
C16    C     0.55115   0.79070   0.82291   0.00000  Uiso   1.00
C17    C     0.46757   0.88300   0.99804   0.00000  Uiso   1.00
H18    H     0.44500   0.80240   0.99660   0.00000  Uiso   1.00
C19    C     0.42814   0.64230   0.79633   0.00000  Uiso   1.00
H20    H     0.46270   0.58350   0.80240   0.00000  Uiso   1.00
C21    C     0.06594   0.50920   0.61098   0.00000  Uiso   1.00
C22    C     0.60396   0.72340   0.70331   0.00000  Uiso   1.00
H23    H     0.60220   0.70410   0.64260   0.00000  Uiso   1.00
C24    C     0.13029   0.54960   0.65032   0.00000  Uiso   1.00
C25    C     0.31670   0.67920   0.75425   0.00000  Uiso   1.00
C26    C     0.71773   0.66280   0.72595   0.00000  Uiso   1.00
C27    C     0.36911   0.59620   0.76408   0.00000  Uiso   1.00
H28    H     0.36390   0.50580   0.74810   0.00000  Uiso   1.00
C29    C     0.66166   0.74550   0.84628   0.00000  Uiso   1.00
H30    H     0.70020   0.74190   0.88500   0.00000  Uiso   1.00
C31    C     0.60892   0.78320   0.87863   0.00000  Uiso   1.00
H32    H     0.61120   0.80440   0.93910   0.00000  Uiso   1.00
C33    C     0.82386   0.55160   0.66480   0.00000  Uiso   1.00
C34    C     0.25288   0.63260   0.71787   0.00000  Uiso   1.00
C35    C     0.38533   0.85760   0.81040   0.00000  Uiso   1.00
H36    H     0.39020   0.94800   0.82630   0.00000  Uiso   1.00
C37    C     0.95644   0.08910   0.60221   0.00000  Uiso   1.00
C38    C     0.32755   0.81060   0.77850   0.00000  Uiso   1.00
H39    H     0.29320   0.86990   0.77250   0.00000  Uiso   1.00
C40    C     0.76453   0.59660   0.78276   0.00000  Uiso   1.00
H41    H     0.76060   0.58660   0.84300   0.00000  Uiso   1.00
F42    F     0.15895   0.34010   0.70990   0.00000  Uiso   1.00
F43    F     0.78314   0.64150   0.52685   0.00000  Uiso   1.00
C44    C     0.17504   0.46390   0.69500   0.00000  Uiso   1.00
C45    C     0.14964   0.67980   0.64328   0.00000  Uiso   1.00
H46    H     0.12070   0.74280   0.61550   0.00000  Uiso   1.00
C47    C     0.20907   0.71980   0.67516   0.00000  Uiso   1.00
H48    H     0.22060   0.80920   0.66790   0.00000  Uiso   1.00
C49    C     0.77870   0.62140   0.61020   0.00000  Uiso   1.00
C50    C     0.81609   0.54610   0.75155   0.00000  Uiso   1.00
H51    H     0.84780   0.50540   0.79210   0.00000  Uiso   1.00
C52    C     0.87834   0.47930   0.63370   0.00000  Uiso   1.00
C53    C     0.72631   0.67550   0.63994   0.00000  Uiso   1.00
H54    H     0.69620   0.72170   0.60000   0.00000  Uiso   1.00
C55    C     0.90587   0.94080   0.49110   0.00000  Uiso   1.00
H56    H     0.86090   0.95390   0.48940   0.00000  Uiso   1.00
H57    H     0.91390   0.84930   0.47520   0.00000  Uiso   1.00
H58    H     0.92130   0.00090   0.44930   0.00000  Uiso   1.00
C59    C     0.23413   0.50370   0.72840   0.00000  Uiso   1.00
H60    H     0.26260   0.44230   0.75920   0.00000  Uiso   1.00
C61    C     0.98806   0.11950   0.69240   0.00000  Uiso   1.00
H62    H     0.02570   0.17190   0.68900   0.00000  Uiso   1.00
H63    H     0.99980   0.03680   0.72370   0.00000  Uiso   1.00
H64    H     0.95960   0.16960   0.72380   0.00000  Uiso   1.00
C65    C     0.94680   0.85270   0.63730   0.00000  Uiso   1.00
H66    H     0.99100   0.84560   0.66260   0.00000  Uiso   1.00
H67    H     0.93390   0.77250   0.60380   0.00000  Uiso   1.00
H68    H     0.92160   0.86310   0.68460   0.00000  Uiso   1.00
Zn69   Zn    0.03875   0.87413   0.93956   0.00000  Uiso   1.00
O70    O     0.96831   0.09318   0.93280   0.00000  Uiso   1.00
O71    O     0.95250   0.89465   0.87610   0.00000  Uiso   1.00
O72    O     0.05373   0.68054   0.95342   0.00000  Uiso   1.00
N73    N     0.50362   0.32520   0.64394   0.00000  Uiso   1.00
C74    C     0.50070   0.41330   0.57024   0.00000  Uiso   1.00
O75    O     0.08508   0.91410   0.81425   0.00000  Uiso   1.00
C76    C     0.45010   0.26220   0.76541   0.00000  Uiso   1.00
H77    H     0.48820   0.26920   0.80470   0.00000  Uiso   1.00
C78    C     0.33936   0.21230   0.74137   0.00000  Uiso   1.00
O79    O     0.11620   0.98810   0.94485   0.00000  Uiso   1.00
C80    C     0.46776   0.53250   0.56915   0.00000  Uiso   1.00
H81    H     0.44600   0.55520   0.61620   0.00000  Uiso   1.00
N82    N     0.06218   0.46780   0.92116   0.00000  Uiso   1.00
C83    C     0.56260   0.27560   0.67986   0.00000  Uiso   1.00
C84    C     0.44885   0.29070   0.67709   0.00000  Uiso   1.00
C85    C     0.53243   0.38300   0.50196   0.00000  Uiso   1.00
H86    H     0.55500   0.30240   0.50340   0.00000  Uiso   1.00
C87    C     0.57186   0.14230   0.70367   0.00000  Uiso   1.00
H88    H     0.53730   0.08350   0.69760   0.00000  Uiso   1.00
C89    C     0.93406   0.00920   0.88902   0.00000  Uiso   1.00
C90    C     0.39604   0.22340   0.79669   0.00000  Uiso   1.00
H91    H     0.39780   0.20410   0.85740   0.00000  Uiso   1.00
C92    C     0.86971   0.04960   0.84968   0.00000  Uiso   1.00
C93    C     0.68330   0.17920   0.74575   0.00000  Uiso   1.00
C94    C     0.28227   0.16280   0.77405   0.00000  Uiso   1.00
C95    C     0.63089   0.09620   0.73592   0.00000  Uiso   1.00
H96    H     0.63610   0.00580   0.75190   0.00000  Uiso   1.00
C97    C     0.33834   0.24550   0.65372   0.00000  Uiso   1.00
H98    H     0.29980   0.24190   0.61500   0.00000  Uiso   1.00
C99    C     0.39108   0.28320   0.62137   0.00000  Uiso   1.00
H100   H     0.38880   0.30440   0.56090   0.00000  Uiso   1.00
C101   C     0.17614   0.05160   0.83520   0.00000  Uiso   1.00
C102   C     0.74712   0.13260   0.78213   0.00000  Uiso   1.00
C103   C     0.61467   0.35760   0.68960   0.00000  Uiso   1.00
H104   H     0.60980   0.44800   0.67370   0.00000  Uiso   1.00
C105   C     0.04356   0.58910   0.89779   0.00000  Uiso   1.00
C106   C     0.67245   0.31060   0.72150   0.00000  Uiso   1.00
H107   H     0.70680   0.36990   0.72750   0.00000  Uiso   1.00
C108   C     0.23547   0.09660   0.71724   0.00000  Uiso   1.00
H109   H     0.23940   0.08660   0.65700   0.00000  Uiso   1.00
F110   F     0.84105   0.84010   0.79010   0.00000  Uiso   1.00
F111   F     0.21686   0.14150   0.97315   0.00000  Uiso   1.00
C112   C     0.82496   0.96390   0.80500   0.00000  Uiso   1.00
C113   C     0.85036   0.17980   0.85672   0.00000  Uiso   1.00
H114   H     0.87930   0.24280   0.88450   0.00000  Uiso   1.00
C115   C     0.79093   0.21980   0.82484   0.00000  Uiso   1.00
H116   H     0.77940   0.30920   0.83210   0.00000  Uiso   1.00
C117   C     0.22130   0.12140   0.88980   0.00000  Uiso   1.00
C118   C     0.18391   0.04610   0.74845   0.00000  Uiso   1.00
H119   H     0.15220   0.00540   0.70790   0.00000  Uiso   1.00
C120   C     0.12166   0.97930   0.86630   0.00000  Uiso   1.00
C121   C     0.27369   0.17550   0.86006   0.00000  Uiso   1.00
H122   H     0.30380   0.22170   0.90000   0.00000  Uiso   1.00
C123   C     0.09413   0.44080   0.00890   0.00000  Uiso   1.00
H124   H     0.13910   0.45390   0.01060   0.00000  Uiso   1.00
H125   H     0.08610   0.34930   0.02480   0.00000  Uiso   1.00
H126   H     0.07870   0.50090   0.05070   0.00000  Uiso   1.00
C127   C     0.76587   0.00370   0.77160   0.00000  Uiso   1.00
H128   H     0.73740   0.94230   0.74080   0.00000  Uiso   1.00
C129   C     0.01194   0.61950   0.80760   0.00000  Uiso   1.00
H130   H     0.97430   0.67190   0.81100   0.00000  Uiso   1.00
H131   H     0.00020   0.53680   0.77630   0.00000  Uiso   1.00
H132   H     0.04040   0.66960   0.77620   0.00000  Uiso   1.00
C133   C     0.05320   0.35270   0.86270   0.00000  Uiso   1.00
H134   H     0.00900   0.34560   0.83740   0.00000  Uiso   1.00
H135   H     0.06610   0.27250   0.89620   0.00000  Uiso   1.00
H136   H     0.07840   0.36310   0.81540   0.00000  Uiso   1.00
Zn137  Zn    0.03875   0.62587   0.43956   0.00000  Uiso   1.00
O138   O     0.96831   0.40682   0.43280   0.00000  Uiso   1.00
O139   O     0.95250   0.60535   0.37610   0.00000  Uiso   1.00
O140   O     0.05373   0.81946   0.45342   0.00000  Uiso   1.00
N141   N     0.50362   0.17480   0.14394   0.00000  Uiso   1.00
C142   C     0.50070   0.08670   0.07024   0.00000  Uiso   1.00
O143   O     0.08508   0.58590   0.31425   0.00000  Uiso   1.00
C144   C     0.45010   0.23780   0.26541   0.00000  Uiso   1.00
H145   H     0.48820   0.23080   0.30470   0.00000  Uiso   1.00
C146   C     0.33936   0.28770   0.24137   0.00000  Uiso   1.00
O147   O     0.11620   0.51190   0.44485   0.00000  Uiso   1.00
C148   C     0.46776   0.96750   0.06915   0.00000  Uiso   1.00
H149   H     0.44600   0.94480   0.11620   0.00000  Uiso   1.00
N150   N     0.06218   0.03220   0.42116   0.00000  Uiso   1.00
C151   C     0.56260   0.22440   0.17986   0.00000  Uiso   1.00
C152   C     0.44885   0.20930   0.17709   0.00000  Uiso   1.00
C153   C     0.53243   0.11700   0.00196   0.00000  Uiso   1.00
H154   H     0.55500   0.19760   0.00340   0.00000  Uiso   1.00
C155   C     0.57186   0.35770   0.20367   0.00000  Uiso   1.00
H156   H     0.53730   0.41650   0.19760   0.00000  Uiso   1.00
C157   C     0.93406   0.49080   0.38902   0.00000  Uiso   1.00
C158   C     0.39604   0.27660   0.29669   0.00000  Uiso   1.00
H159   H     0.39780   0.29590   0.35740   0.00000  Uiso   1.00
C160   C     0.86971   0.45040   0.34968   0.00000  Uiso   1.00
C161   C     0.68330   0.32080   0.24575   0.00000  Uiso   1.00
C162   C     0.28227   0.33720   0.27405   0.00000  Uiso   1.00
C163   C     0.63089   0.40380   0.23592   0.00000  Uiso   1.00
H164   H     0.63610   0.49420   0.25190   0.00000  Uiso   1.00
C165   C     0.33834   0.25450   0.15372   0.00000  Uiso   1.00
H166   H     0.29980   0.25810   0.11500   0.00000  Uiso   1.00
C167   C     0.39108   0.21680   0.12137   0.00000  Uiso   1.00
H168   H     0.38880   0.19560   0.06090   0.00000  Uiso   1.00
C169   C     0.17614   0.44840   0.33520   0.00000  Uiso   1.00
C170   C     0.74712   0.36740   0.28213   0.00000  Uiso   1.00
C171   C     0.61467   0.14240   0.18960   0.00000  Uiso   1.00
H172   H     0.60980   0.05200   0.17370   0.00000  Uiso   1.00
C173   C     0.04356   0.91090   0.39779   0.00000  Uiso   1.00
C174   C     0.67245   0.18940   0.22150   0.00000  Uiso   1.00
H175   H     0.70680   0.13010   0.22750   0.00000  Uiso   1.00
C176   C     0.23547   0.40340   0.21724   0.00000  Uiso   1.00
H177   H     0.23940   0.41340   0.15700   0.00000  Uiso   1.00
F178   F     0.84105   0.65990   0.29010   0.00000  Uiso   1.00
F179   F     0.21686   0.35850   0.47315   0.00000  Uiso   1.00
C180   C     0.82496   0.53610   0.30500   0.00000  Uiso   1.00
C181   C     0.85036   0.32020   0.35672   0.00000  Uiso   1.00
H182   H     0.87930   0.25720   0.38450   0.00000  Uiso   1.00
C183   C     0.79093   0.28020   0.32484   0.00000  Uiso   1.00
H184   H     0.77940   0.19080   0.33210   0.00000  Uiso   1.00
C185   C     0.22130   0.37860   0.38980   0.00000  Uiso   1.00
C186   C     0.18391   0.45390   0.24845   0.00000  Uiso   1.00
H187   H     0.15220   0.49460   0.20790   0.00000  Uiso   1.00
C188   C     0.12166   0.52070   0.36630   0.00000  Uiso   1.00
C189   C     0.27369   0.32450   0.36006   0.00000  Uiso   1.00
H190   H     0.30380   0.27830   0.40000   0.00000  Uiso   1.00
C191   C     0.09413   0.05920   0.50890   0.00000  Uiso   1.00
H192   H     0.13910   0.04610   0.51060   0.00000  Uiso   1.00
H193   H     0.08610   0.15070   0.52480   0.00000  Uiso   1.00
H194   H     0.07870   0.99910   0.55070   0.00000  Uiso   1.00
C195   C     0.76587   0.49630   0.27160   0.00000  Uiso   1.00
H196   H     0.73740   0.55770   0.24080   0.00000  Uiso   1.00
C197   C     0.01194   0.88050   0.30760   0.00000  Uiso   1.00
H198   H     0.97430   0.82810   0.31100   0.00000  Uiso   1.00
H199   H     0.00020   0.96320   0.27630   0.00000  Uiso   1.00
H200   H     0.04040   0.83040   0.27620   0.00000  Uiso   1.00
C201   C     0.05320   0.14730   0.36270   0.00000  Uiso   1.00
H202   H     0.00900   0.15440   0.33740   0.00000  Uiso   1.00
H203   H     0.06610   0.22750   0.39620   0.00000  Uiso   1.00
H204   H     0.07840   0.13690   0.31540   0.00000  Uiso   1.00
Zn205  Zn    0.96125   0.12587   0.06044   0.00000  Uiso   1.00
O206   O     0.03169   0.90682   0.06720   0.00000  Uiso   1.00
O207   O     0.04750   0.10535   0.12390   0.00000  Uiso   1.00
O208   O     0.94627   0.31946   0.04658   0.00000  Uiso   1.00
N209   N     0.49638   0.67480   0.35606   0.00000  Uiso   1.00
C210   C     0.49930   0.58670   0.42976   0.00000  Uiso   1.00
O211   O     0.91492   0.08590   0.18575   0.00000  Uiso   1.00
C212   C     0.54990   0.73780   0.23459   0.00000  Uiso   1.00
H213   H     0.51180   0.73080   0.19530   0.00000  Uiso   1.00
C214   C     0.66064   0.78770   0.25863   0.00000  Uiso   1.00
O215   O     0.88380   0.01190   0.05515   0.00000  Uiso   1.00
C216   C     0.53224   0.46750   0.43085   0.00000  Uiso   1.00
H217   H     0.55400   0.44480   0.38380   0.00000  Uiso   1.00
N218   N     0.93782   0.53220   0.07884   0.00000  Uiso   1.00
C219   C     0.43740   0.72440   0.32014   0.00000  Uiso   1.00
C220   C     0.55115   0.70930   0.32291   0.00000  Uiso   1.00
C221   C     0.46757   0.61700   0.49804   0.00000  Uiso   1.00
H222   H     0.44500   0.69760   0.49660   0.00000  Uiso   1.00
C223   C     0.42814   0.85770   0.29633   0.00000  Uiso   1.00
H224   H     0.46270   0.91650   0.30240   0.00000  Uiso   1.00
C225   C     0.06594   0.99080   0.11098   0.00000  Uiso   1.00
C226   C     0.60396   0.77660   0.20331   0.00000  Uiso   1.00
H227   H     0.60220   0.79590   0.14260   0.00000  Uiso   1.00
C228   C     0.13029   0.95040   0.15032   0.00000  Uiso   1.00
C229   C     0.31670   0.82080   0.25425   0.00000  Uiso   1.00
C230   C     0.71773   0.83720   0.22595   0.00000  Uiso   1.00
C231   C     0.36911   0.90380   0.26408   0.00000  Uiso   1.00
H232   H     0.36390   0.99420   0.24810   0.00000  Uiso   1.00
C233   C     0.66166   0.75450   0.34628   0.00000  Uiso   1.00
H234   H     0.70020   0.75810   0.38500   0.00000  Uiso   1.00
C235   C     0.60892   0.71680   0.37863   0.00000  Uiso   1.00
H236   H     0.61120   0.69560   0.43910   0.00000  Uiso   1.00
C237   C     0.82386   0.94840   0.16480   0.00000  Uiso   1.00
C238   C     0.25288   0.86740   0.21787   0.00000  Uiso   1.00
C239   C     0.38533   0.64240   0.31040   0.00000  Uiso   1.00
H240   H     0.39020   0.55200   0.32630   0.00000  Uiso   1.00
C241   C     0.95644   0.41090   0.10221   0.00000  Uiso   1.00
C242   C     0.32755   0.68940   0.27850   0.00000  Uiso   1.00
H243   H     0.29320   0.63010   0.27250   0.00000  Uiso   1.00
C244   C     0.76453   0.90340   0.28276   0.00000  Uiso   1.00
H245   H     0.76060   0.91340   0.34300   0.00000  Uiso   1.00
F246   F     0.15895   0.15990   0.20990   0.00000  Uiso   1.00
F247   F     0.78314   0.85850   0.02685   0.00000  Uiso   1.00
C248   C     0.17504   0.03610   0.19500   0.00000  Uiso   1.00
C249   C     0.14964   0.82020   0.14328   0.00000  Uiso   1.00
H250   H     0.12070   0.75720   0.11550   0.00000  Uiso   1.00
C251   C     0.20907   0.78020   0.17516   0.00000  Uiso   1.00
H252   H     0.22060   0.69080   0.16790   0.00000  Uiso   1.00
C253   C     0.77870   0.87860   0.11020   0.00000  Uiso   1.00
C254   C     0.81609   0.95390   0.25155   0.00000  Uiso   1.00
H255   H     0.84780   0.99460   0.29210   0.00000  Uiso   1.00
C256   C     0.87834   0.02070   0.13370   0.00000  Uiso   1.00
C257   C     0.72631   0.82450   0.13994   0.00000  Uiso   1.00
H258   H     0.69620   0.77830   0.10000   0.00000  Uiso   1.00
C259   C     0.90587   0.55920   0.99110   0.00000  Uiso   1.00
H260   H     0.86090   0.54610   0.98940   0.00000  Uiso   1.00
H261   H     0.91390   0.65070   0.97520   0.00000  Uiso   1.00
H262   H     0.92130   0.49910   0.94930   0.00000  Uiso   1.00
C263   C     0.23413   0.99630   0.22840   0.00000  Uiso   1.00
H264   H     0.26260   0.05770   0.25920   0.00000  Uiso   1.00
C265   C     0.98806   0.38050   0.19240   0.00000  Uiso   1.00
H266   H     0.02570   0.32810   0.18900   0.00000  Uiso   1.00
H267   H     0.99980   0.46320   0.22370   0.00000  Uiso   1.00
H268   H     0.95960   0.33040   0.22380   0.00000  Uiso   1.00
C269   C     0.94680   0.64730   0.13730   0.00000  Uiso   1.00
H270   H     0.99100   0.65440   0.16260   0.00000  Uiso   1.00
H271   H     0.93390   0.72750   0.10380   0.00000  Uiso   1.00
H272   H     0.92160   0.63690   0.18460   0.00000  Uiso   1.00
loop_
_geom_bond_atom_site_label_1
_geom_bond_atom_site_label_2
_geom_bond_distance
_geom_bond_site_symmetry_2
_ccdc_geom_bond_type
Zn1    O3      1.985   1_655 S
Zn1    O4      1.993   .     S
Zn1    O138    2.022   .     S
Zn1    O7      2.340   .     S
Zn1    O11     2.028   .     S
O2     C21     1.256   .     S
O2     Zn137   2.022   .     S
O3     Zn1     1.985   1_455 S
O3     C21     1.252   .     S
O4     C37     1.258   .     S
N5     C6      1.437   .     S
N5     C15     1.406   .     S
N5     C16     1.404   .     S
C6     C12     1.401   1_565 S
C6     C17     1.375   .     S
O7     C52     1.231   .     S
C8     H9      0.950   .     S
C8     C22     1.388   .     S
C8     C16     1.387   .     S
C10    C22     1.390   .     S
C10    C26     1.490   .     S
C10    C29     1.388   .     S
O11    C52     1.236   .     S
C12    C6      1.401   1_545 S
C12    H13     0.950   .     S
C12    C153    1.389   1_556 S
N14    C37     1.325   1_565 S
N14    C55     1.449   .     S
N14    C65     1.468   .     S
C15    C19     1.405   .     S
C15    C35     1.390   .     S
C16    C31     1.409   .     S
C17    H18     0.950   .     S
C17    C148    1.389   1_556 S
C19    H20     0.950   .     S
C19    C27     1.381   .     S
C21    C24     1.491   .     S
C22    H23     0.950   .     S
C24    C44     1.402   .     S
C24    C45     1.392   .     S
C25    C27     1.402   .     S
C25    C34     1.488   .     S
C25    C38     1.392   .     S
C26    C40     1.406   .     S
C26    C53     1.371   .     S
C27    H28     0.950   .     S
C29    H30     0.951   .     S
C29    C31     1.367   .     S
C31    H32     0.950   .     S
C33    C49     1.384   .     S
C33    C50     1.373   .     S
C33    C52     1.526   .     S
C34    C47     1.387   .     S
C34    C59     1.383   .     S
C35    H36     0.949   .     S
C35    C38     1.360   .     S
C37    N14     1.325   1_545 S
C37    C61     1.486   .     S
C38    H39     0.950   .     S
C40    H41     0.950   .     S
C40    C50     1.379   .     S
F42    C44     1.330   .     S
F43    C49     1.317   .     S
C44    C59     1.366   .     S
C45    H46     0.950   .     S
C45    C47     1.368   .     S
C47    H48     0.950   .     S
C49    C53     1.398   .     S
C50    H51     0.950   .     S
C53    H54     0.950   .     S
C55    H56     0.979   .     S
C55    H57     0.980   .     S
C55    H58     0.980   1_565 S
H58    C55     0.980   1_545 S
C59    H60     0.951   .     S
C61    H62     0.981   1_655 S
C61    H63     0.980   .     S
C61    H64     0.980   .     S
H62    C61     0.981   1_455 S
C65    H66     0.981   .     S
C65    H67     0.980   .     S
C65    H68     0.979   .     S
Zn69   O71     1.985   1_455 S
Zn69   O72     1.993   .     S
Zn69   O206    2.022   1_556 S
Zn69   O75     2.340   .     S
Zn69   O79     2.028   .     S
O70    C89     1.256   .     S
O70    Zn205   2.022   1_556 S
O71    Zn69    1.985   1_655 S
O71    C89     1.252   1_565 S
O72    C105    1.258   .     S
N73    C74     1.437   .     S
N73    C83     1.406   .     S
N73    C84     1.404   .     S
C74    C80     1.401   .     S
C74    C85     1.375   .     S
O75    C120    1.231   .     S
C76    H77     0.950   .     S
C76    C90     1.388   .     S
C76    C84     1.387   .     S
C78    C90     1.390   .     S
C78    C94     1.490   .     S
C78    C97     1.388   .     S
O79    C120    1.236   .     S
C80    H81     0.950   .     S
C80    C221    1.389   .     S
N82    C105    1.325   .     S
N82    C123    1.449   1_556 S
N82    C133    1.468   .     S
C83    C87     1.405   .     S
C83    C103    1.390   .     S
C84    C99     1.409   .     S
C85    H86     0.950   .     S
C85    C216    1.389   .     S
C87    H88     0.950   .     S
C87    C95     1.381   .     S
C89    O71     1.252   1_545 S
C89    C92     1.491   .     S
C90    H91     0.950   .     S
C92    C112    1.402   1_545 S
C92    C113    1.392   .     S
C93    C95     1.402   .     S
C93    C102    1.488   .     S
C93    C106    1.392   .     S
C94    C108    1.406   .     S
C94    C121    1.371   .     S
C95    H96     0.950   .     S
C97    H98     0.951   .     S
C97    C99     1.367   .     S
C99    H100    0.950   .     S
C101   C117    1.384   .     S
C101   C118    1.373   .     S
C101   C120    1.526   1_545 S
C102   C115    1.387   .     S
C102   C127    1.383   .     S
C103   H104    0.949   .     S
C103   C106    1.360   .     S
C105   C129    1.486   .     S
C106   H107    0.950   .     S
C108   H109    0.950   .     S
C108   C118    1.379   .     S
F110   C112    1.330   .     S
F111   C117    1.317   .     S
C112   C92     1.402   1_565 S
C112   C127    1.366   1_565 S
C113   H114    0.950   .     S
C113   C115    1.368   .     S
C115   H116    0.950   .     S
C117   C121    1.398   .     S
C118   H119    0.950   .     S
C120   C101    1.526   1_565 S
C121   H122    0.950   .     S
C123   N82     1.449   1_554 S
C123   H124    0.979   .     S
C123   H125    0.980   .     S
C123   H126    0.980   .     S
C127   C112    1.366   1_545 S
C127   H128    0.951   1_545 S
H128   C127    0.951   1_565 S
C129   H130    0.981   1_455 S
C129   H131    0.980   .     S
C129   H132    0.980   .     S
H130   C129    0.981   1_655 S
C133   H134    0.981   .     S
C133   H135    0.980   .     S
C133   H136    0.979   .     S
Zn137  O139    1.985   1_455 S
Zn137  O140    1.993   .     S
Zn137  O143    2.340   .     S
Zn137  O147    2.028   .     S
O138   C157    1.256   .     S
O139   Zn137   1.985   1_655 S
O139   C157    1.252   .     S
O140   C173    1.258   .     S
N141   C142    1.437   .     S
N141   C151    1.406   .     S
N141   C152    1.404   .     S
C142   C148    1.401   1_545 S
C142   C153    1.375   .     S
O143   C188    1.231   .     S
C144   H145    0.950   .     S
C144   C158    1.388   .     S
C144   C152    1.387   .     S
C146   C158    1.390   .     S
C146   C162    1.490   .     S
C146   C165    1.388   .     S
O147   C188    1.236   .     S
C148   C142    1.401   1_565 S
C148   H149    0.950   .     S
C148   C17     1.389   1_554 S
N150   C173    1.325   1_545 S
N150   C191    1.449   .     S
N150   C201    1.468   .     S
C151   C155    1.405   .     S
C151   C171    1.390   .     S
C152   C167    1.409   .     S
C153   H154    0.950   .     S
C153   C12     1.389   1_554 S
C155   H156    0.950   .     S
C155   C163    1.381   .     S
C157   C160    1.491   .     S
C158   H159    0.950   .     S
C160   C180    1.402   .     S
C160   C181    1.392   .     S
C161   C163    1.402   .     S
C161   C170    1.488   .     S
C161   C174    1.392   .     S
C162   C176    1.406   .     S
C162   C189    1.371   .     S
C163   H164    0.950   .     S
C165   H166    0.951   .     S
C165   C167    1.367   .     S
C167   H168    0.950   .     S
C169   C185    1.384   .     S
C169   C186    1.373   .     S
C169   C188    1.526   .     S
C170   C183    1.387   .     S
C170   C195    1.383   .     S
C171   H172    0.949   .     S
C171   C174    1.360   .     S
C173   N150    1.325   1_565 S
C173   C197    1.486   .     S
C174   H175    0.950   .     S
C176   H177    0.950   .     S
C176   C186    1.379   .     S
F178   C180    1.330   .     S
F179   C185    1.317   .     S
C180   C195    1.366   .     S
C181   H182    0.950   .     S
C181   C183    1.368   .     S
C183   H184    0.950   .     S
C185   C189    1.398   .     S
C186   H187    0.950   .     S
C189   H190    0.950   .     S
C191   H192    0.979   .     S
C191   H193    0.980   .     S
C191   H194    0.980   1_545 S
H194   C191    0.980   1_565 S
C195   H196    0.951   .     S
C197   H198    0.981   1_455 S
C197   H199    0.980   .     S
C197   H200    0.980   .     S
H198   C197    0.981   1_655 S
C201   H202    0.981   .     S
C201   H203    0.980   .     S
C201   H204    0.979   .     S
Zn205  O207    1.985   1_655 S
Zn205  O208    1.993   .     S
Zn205  O70     2.022   1_554 S
Zn205  O211    2.340   .     S
Zn205  O215    2.028   .     S
O206   C225    1.256   .     S
O206   Zn69    2.022   1_554 S
O207   Zn205   1.985   1_455 S
O207   C225    1.252   1_545 S
O208   C241    1.258   .     S
N209   C210    1.437   .     S
N209   C219    1.406   .     S
N209   C220    1.404   .     S
C210   C216    1.401   .     S
C210   C221    1.375   .     S
O211   C256    1.231   .     S
C212   H213    0.950   .     S
C212   C226    1.388   .     S
C212   C220    1.387   .     S
C214   C226    1.390   .     S
C214   C230    1.490   .     S
C214   C233    1.388   .     S
O215   C256    1.236   .     S
C216   H217    0.950   .     S
N218   C241    1.325   .     S
N218   C259    1.449   1_554 S
N218   C269    1.468   .     S
C219   C223    1.405   .     S
C219   C239    1.390   .     S
C220   C235    1.409   .     S
C221   H222    0.950   .     S
C223   H224    0.950   .     S
C223   C231    1.381   .     S
C225   O207    1.252   1_565 S
C225   C228    1.491   .     S
C226   H227    0.950   .     S
C228   C248    1.402   1_565 S
C228   C249    1.392   .     S
C229   C231    1.402   .     S
C229   C238    1.488   .     S
C229   C242    1.392   .     S
C230   C244    1.406   .     S
C230   C257    1.371   .     S
C231   H232    0.950   .     S
C233   H234    0.951   .     S
C233   C235    1.367   .     S
C235   H236    0.950   .     S
C237   C253    1.384   .     S
C237   C254    1.373   .     S
C237   C256    1.526   1_565 S
C238   C251    1.387   .     S
C238   C263    1.383   .     S
C239   H240    0.949   .     S
C239   C242    1.360   .     S
C241   C265    1.486   .     S
C242   H243    0.950   .     S
C244   H245    0.950   .     S
C244   C254    1.379   .     S
F246   C248    1.330   .     S
F247   C253    1.317   .     S
C248   C228    1.402   1_545 S
C248   C263    1.366   1_545 S
C249   H250    0.950   .     S
C249   C251    1.368   .     S
C251   H252    0.950   .     S
C253   C257    1.398   .     S
C254   H255    0.950   .     S
C256   C237    1.526   1_545 S
C257   H258    0.950   .     S
C259   N218    1.449   1_556 S
C259   H260    0.979   .     S
C259   H261    0.980   .     S
C259   H262    0.980   .     S
C263   C248    1.366   1_565 S
C263   H264    0.951   1_565 S
H264   C263    0.951   1_545 S
C265   H266    0.981   1_655 S
C265   H267    0.980   .     S
C265   H268    0.980   .     S
H266   C265    0.981   1_455 S
C269   H270    0.981   .     S
C269   H271    0.980   .     S
C269   H272    0.979   .     S
