data_MILPAB_FSR
_audit_creation_date              2024-06-11
_audit_creation_method            'Materials Studio'
_symmetry_space_group_name_H-M    'P1'
_symmetry_Int_Tables_number       1
_symmetry_cell_setting            triclinic
loop_
_symmetry_equiv_pos_as_xyz
  x,y,z
_cell_length_a                    10.7095
_cell_length_b                    11.3590
_cell_length_c                    12.0866
_cell_angle_alpha                 62.7030
_cell_angle_beta                  74.5690
_cell_angle_gamma                 68.6670
loop_
_atom_site_label
_atom_site_type_symbol
_atom_site_fract_x
_atom_site_fract_y
_atom_site_fract_z
_atom_site_U_iso_or_equiv
_atom_site_adp_type
_atom_site_occupancy
C1     C     0.36800   0.10190   0.10230   0.00000  Uiso   1.00
C2     C     0.59020   0.06980   0.06010   0.00000  Uiso   1.00
C3     C     0.50130   0.91790   0.23350   0.00000  Uiso   1.00
C4     C     0.65460   0.73080   0.37970   0.00000  Uiso   1.00
H5     H     0.71590   0.71230   0.30850   0.00000  Uiso   1.00
H6     H     0.65220   0.64030   0.44920   0.00000  Uiso   1.00
C7     C     0.71480   0.80190   0.42100   0.00000  Uiso   1.00
C8     C     0.40960   0.74520   0.41990   0.00000  Uiso   1.00
H9     H     0.43810   0.64450   0.44210   0.00000  Uiso   1.00
H10    H     0.33090   0.78740   0.37240   0.00000  Uiso   1.00
C11    C     0.36790   0.77130   0.54120   0.00000  Uiso   1.00
C12    C     0.82450   0.05370   0.04230   0.00000  Uiso   1.00
H13    H     0.89280   0.09660   0.97880   0.00000  Uiso   1.00
H14    H     0.85660   0.95360   0.06160   0.00000  Uiso   1.00
C15    C     0.81520   0.07310   0.15980   0.00000  Uiso   1.00
C16    C     0.68690   0.22640   0.86750   0.00000  Uiso   1.00
H17    H     0.62600   0.21750   0.82450   0.00000  Uiso   1.00
H18    H     0.77690   0.21710   0.81750   0.00000  Uiso   1.00
C19    C     0.63570   0.36950   0.86440   0.00000  Uiso   1.00
C20    C     0.12540   0.14900   0.16310   0.00000  Uiso   1.00
H21    H     0.12490   0.06140   0.16460   0.00000  Uiso   1.00
H22    H     0.04260   0.22000   0.12820   0.00000  Uiso   1.00
C23    C     0.11680   0.13000   0.29600   0.00000  Uiso   1.00
C24    C     0.22810   0.32690   0.97680   0.00000  Uiso   1.00
H25    H     0.13100   0.37770   0.97270   0.00000  Uiso   1.00
H26    H     0.26560   0.31750   0.89610   0.00000  Uiso   1.00
C27    C     0.29980   0.41180   0.99250   0.00000  Uiso   1.00
N28    N     0.46960   0.14630   0.02090   0.00000  Uiso   1.00
N29    N     0.61470   0.95430   0.16570   0.00000  Uiso   1.00
N30    N     0.37540   0.98650   0.20640   0.00000  Uiso   1.00
N31    N     0.51950   0.80300   0.34140   0.00000  Uiso   1.00
N32    N     0.69910   0.11150   0.98880   0.00000  Uiso   1.00
N33    N     0.24080   0.18900   0.07790   0.00000  Uiso   1.00
O34    O     0.65720   0.91930   0.42140   0.00000  Uiso   1.00
O35    O     0.83400   0.73910   0.45220   0.00000  Uiso   1.00
O36    O     0.43000   0.68620   0.63270   0.00000  Uiso   1.00
O37    O     0.27360   0.87810   0.53790   0.00000  Uiso   1.00
O38    O     0.90010   0.98730   0.23440   0.00000  Uiso   1.00
O39    O     0.72570   0.17470   0.17710   0.00000  Uiso   1.00
O40    O     0.58120   0.39040   0.96170   0.00000  Uiso   1.00
O41    O     0.63860   0.47090   0.75870   0.00000  Uiso   1.00
O42    O     0.03630   0.06480   0.37840   0.00000  Uiso   1.00
O43    O     0.18560   0.17620   0.32900   0.00000  Uiso   1.00
O44    O     0.32090   0.51410   0.89190   0.00000  Uiso   1.00
O45    O     0.08220   0.75340   0.47430   0.00000  Uiso   1.00
O46    O     0.54370   0.84090   0.69850   0.00000  Uiso   1.00
O47    O     0.33000   0.38000   0.09780   0.00000  Uiso   1.00
Tb48   Tb    0.87835   0.93427   0.44630   0.00000  Uiso   1.00
Tb49   Tb    0.47116   0.64566   0.82965   0.00000  Uiso   1.00
C50    C     0.63200   0.89810   0.89770   0.00000  Uiso   1.00
C51    C     0.40980   0.93020   0.93990   0.00000  Uiso   1.00
C52    C     0.49870   0.08210   0.76650   0.00000  Uiso   1.00
C53    C     0.34540   0.26920   0.62030   0.00000  Uiso   1.00
H54    H     0.28410   0.28770   0.69150   0.00000  Uiso   1.00
H55    H     0.34780   0.35970   0.55080   0.00000  Uiso   1.00
C56    C     0.28520   0.19810   0.57900   0.00000  Uiso   1.00
C57    C     0.59040   0.25480   0.58010   0.00000  Uiso   1.00
H58    H     0.56190   0.35550   0.55790   0.00000  Uiso   1.00
H59    H     0.66910   0.21260   0.62760   0.00000  Uiso   1.00
C60    C     0.63210   0.22870   0.45880   0.00000  Uiso   1.00
C61    C     0.17550   0.94630   0.95770   0.00000  Uiso   1.00
H62    H     0.10720   0.90340   0.02120   0.00000  Uiso   1.00
H63    H     0.14340   0.04640   0.93840   0.00000  Uiso   1.00
C64    C     0.18480   0.92690   0.84020   0.00000  Uiso   1.00
C65    C     0.31310   0.77360   0.13250   0.00000  Uiso   1.00
H66    H     0.37400   0.78250   0.17550   0.00000  Uiso   1.00
H67    H     0.22310   0.78290   0.18250   0.00000  Uiso   1.00
C68    C     0.36430   0.63050   0.13560   0.00000  Uiso   1.00
C69    C     0.87460   0.85100   0.83690   0.00000  Uiso   1.00
H70    H     0.87510   0.93860   0.83540   0.00000  Uiso   1.00
H71    H     0.95740   0.78000   0.87180   0.00000  Uiso   1.00
C72    C     0.88320   0.87000   0.70400   0.00000  Uiso   1.00
C73    C     0.77190   0.67310   0.02320   0.00000  Uiso   1.00
H74    H     0.86900   0.62230   0.02730   0.00000  Uiso   1.00
H75    H     0.73440   0.68250   0.10390   0.00000  Uiso   1.00
C76    C     0.70020   0.58820   0.00750   0.00000  Uiso   1.00
N77    N     0.53040   0.85370   0.97910   0.00000  Uiso   1.00
N78    N     0.38530   0.04570   0.83430   0.00000  Uiso   1.00
N79    N     0.62460   0.01350   0.79360   0.00000  Uiso   1.00
N80    N     0.48050   0.19700   0.65860   0.00000  Uiso   1.00
N81    N     0.30090   0.88850   0.01120   0.00000  Uiso   1.00
N82    N     0.75920   0.81100   0.92210   0.00000  Uiso   1.00
O83    O     0.34280   0.08070   0.57860   0.00000  Uiso   1.00
O84    O     0.16600   0.26090   0.54780   0.00000  Uiso   1.00
O85    O     0.57000   0.31380   0.36730   0.00000  Uiso   1.00
O86    O     0.72640   0.12190   0.46210   0.00000  Uiso   1.00
O87    O     0.09990   0.01270   0.76560   0.00000  Uiso   1.00
O88    O     0.27430   0.82530   0.82290   0.00000  Uiso   1.00
O89    O     0.41880   0.60960   0.03830   0.00000  Uiso   1.00
O90    O     0.36140   0.52910   0.24130   0.00000  Uiso   1.00
O91    O     0.96370   0.93520   0.62160   0.00000  Uiso   1.00
O92    O     0.81440   0.82380   0.67100   0.00000  Uiso   1.00
O93    O     0.67910   0.48590   0.10810   0.00000  Uiso   1.00
O94    O     0.91780   0.24660   0.52570   0.00000  Uiso   1.00
O95    O     0.45630   0.15910   0.30150   0.00000  Uiso   1.00
O96    O     0.67000   0.62000   0.90220   0.00000  Uiso   1.00
Tb97   Tb    0.12165   0.06573   0.55370   0.00000  Uiso   1.00
Tb98   Tb    0.52884   0.35434   0.17035   0.00000  Uiso   1.00
loop_
_geom_bond_atom_site_label_1
_geom_bond_atom_site_label_2
_geom_bond_distance
_geom_bond_site_symmetry_2
_ccdc_geom_bond_type
C1     N28     1.334   .     S
C1     N30     1.331   1_545 S
C1     N33     1.374   .     S
C2     N28     1.334   .     S
C2     N29     1.346   1_545 S
C2     N32     1.349   1_554 S
C3     N29     1.357   .     S
C3     N31     1.353   .     S
C3     N30     1.330   .     S
C4     H5      0.990   .     S
C4     H6      0.989   .     S
C4     C7      1.496   .     S
C4     N31     1.458   .     S
C7     O34     1.251   .     S
C7     O35     1.276   .     S
C8     H9      0.991   .     S
C8     H10     0.990   .     S
C8     C11     1.546   .     S
C8     N31     1.454   .     S
C11    O36     1.242   .     S
C11    O37     1.257   .     S
C12    H13     0.989   1_554 S
C12    H14     0.990   1_545 S
C12    C15     1.507   .     S
C12    N32     1.444   1_554 S
H13    C12     0.989   1_556 S
H14    C12     0.990   1_565 S
C15    O38     1.255   1_545 S
C15    O39     1.267   .     S
C16    H17     0.991   .     S
C16    H18     0.990   .     S
C16    C19     1.500   .     S
C16    N32     1.447   .     S
C19    O40     1.253   .     S
C19    O41     1.271   .     S
C20    H21     0.989   .     S
C20    H22     0.991   .     S
C20    C23     1.501   .     S
C20    N33     1.448   .     S
C23    O42     1.271   .     S
C23    O43     1.268   .     S
C24    H25     0.991   .     S
C24    H26     0.990   .     S
C24    C27     1.530   .     S
C24    N33     1.464   1_556 S
C27    O44     1.276   .     S
C27    O47     1.252   1_556 S
N29    C2      1.346   1_565 S
N30    C1      1.331   1_565 S
N32    C2      1.349   1_556 S
N32    C12     1.444   1_556 S
N33    C24     1.464   1_554 S
O34    Tb48    2.539   .     S
O35    Tb48    2.398   .     S
O36    Tb49    2.341   .     S
O37    Tb97    2.216   1_565 S
O38    C15     1.255   1_565 S
O38    Tb48    2.312   .     S
O39    Tb98    2.329   .     S
O40    Tb49    2.572   .     S
O40    Tb98    2.304   1_556 S
O41    Tb49    2.459   .     S
O42    Tb48    2.388   1_445 S
O42    Tb97    2.526   .     S
O43    Tb97    2.435   .     S
O44    Tb49    2.337   .     S
O45    Tb48    2.365   1_455 S
O46    Tb49    2.326   .     S
O47    C27     1.252   1_554 S
O47    Tb98    2.387   .     S
Tb48   O45     2.365   1_655 S
Tb48   O86     2.216   1_565 S
Tb48   O42     2.388   1_665 S
Tb48   O91     2.526   .     S
Tb48   O92     2.435   .     S
Tb49   O88     2.329   .     S
Tb49   O89     2.304   1_556 S
Tb49   O96     2.387   .     S
C50    N77     1.334   .     S
C50    N79     1.331   1_565 S
C50    N82     1.374   .     S
C51    N77     1.334   .     S
C51    N78     1.346   1_565 S
C51    N81     1.349   1_556 S
C52    N78     1.357   .     S
C52    N80     1.353   .     S
C52    N79     1.330   .     S
C53    H54     0.990   .     S
C53    H55     0.989   .     S
C53    C56     1.496   .     S
C53    N80     1.458   .     S
C56    O83     1.251   .     S
C56    O84     1.276   .     S
C57    H58     0.991   .     S
C57    H59     0.990   .     S
C57    C60     1.546   .     S
C57    N80     1.454   .     S
C60    O85     1.242   .     S
C60    O86     1.257   .     S
C61    H62     0.989   1_556 S
C61    H63     0.990   1_565 S
C61    C64     1.507   .     S
C61    N81     1.444   1_556 S
H62    C61     0.989   1_554 S
H63    C61     0.990   1_545 S
C64    O87     1.255   1_565 S
C64    O88     1.267   .     S
C65    H66     0.991   .     S
C65    H67     0.990   .     S
C65    C68     1.500   .     S
C65    N81     1.447   .     S
C68    O89     1.253   .     S
C68    O90     1.271   .     S
C69    H70     0.989   .     S
C69    H71     0.991   .     S
C69    C72     1.501   .     S
C69    N82     1.448   .     S
C72    O91     1.271   .     S
C72    O92     1.268   .     S
C73    H74     0.991   .     S
C73    H75     0.990   .     S
C73    C76     1.530   .     S
C73    N82     1.464   1_554 S
C76    O93     1.276   .     S
C76    O96     1.252   1_554 S
N78    C51     1.346   1_545 S
N79    C50     1.331   1_545 S
N81    C51     1.349   1_554 S
N81    C61     1.444   1_554 S
N82    C73     1.464   1_556 S
O83    Tb97    2.539   .     S
O84    Tb97    2.398   .     S
O85    Tb98    2.341   .     S
O86    Tb48    2.216   1_545 S
O87    C64     1.255   1_545 S
O87    Tb97    2.312   .     S
O89    Tb98    2.572   .     S
O89    Tb49    2.304   1_554 S
O90    Tb98    2.459   .     S
O91    Tb97    2.388   1_665 S
O93    Tb98    2.337   .     S
O94    Tb97    2.365   1_655 S
O95    Tb98    2.326   .     S
O96    C76     1.252   1_556 S
Tb97   O94     2.365   1_455 S
Tb97   O37     2.216   1_545 S
Tb97   O91     2.388   1_445 S
Tb98   O40     2.304   1_554 S
