data_MIPVUE_direct
_audit_creation_date              2024-06-11
_audit_creation_method            'Materials Studio'
_symmetry_space_group_name_H-M    'P1'
_symmetry_Int_Tables_number       1
_symmetry_cell_setting            triclinic
loop_
_symmetry_equiv_pos_as_xyz
  x,y,z
_cell_length_a                    10.0175
_cell_length_b                    22.3117
_cell_length_c                    8.6021
_cell_angle_alpha                 90.0000
_cell_angle_beta                  90.0000
_cell_angle_gamma                 90.0000
loop_
_atom_site_label
_atom_site_type_symbol
_atom_site_fract_x
_atom_site_fract_y
_atom_site_fract_z
_atom_site_U_iso_or_equiv
_atom_site_adp_type
_atom_site_occupancy
P1     P     0.71473   0.48102   0.30064   0.00000  Uiso   1.00
P2     P     0.59732   0.62978   0.10406   0.00000  Uiso   1.00
O3     O     0.66945   0.48501   0.10348   0.00000  Uiso   1.00
O4     O     0.89264   0.46985   0.32373   0.00000  Uiso   1.00
O5     O     0.65130   0.42082   0.35097   0.00000  Uiso   1.00
C6     C     0.62197   0.54043   0.40142   0.00000  Uiso   1.00
O7     O     0.51503   0.68877   0.15476   0.00000  Uiso   1.00
O8     O     0.64714   0.64927   0.93269   0.00000  Uiso   1.00
O9     O     0.47352   0.57597   0.08024   0.00000  Uiso   1.00
C10    C     0.73502   0.61979   0.24753   0.00000  Uiso   1.00
N11    N     0.69432   0.59744   0.40384   0.00000  Uiso   1.00
C12    C     0.61407   0.63967   0.49596   0.00000  Uiso   1.00
C13    C     0.68691   0.69621   0.52942   0.00000  Uiso   1.00
C14    C     0.81002   0.69613   0.60708   0.00000  Uiso   1.00
H15    H     0.64327   0.34607   0.13884   0.00000  Uiso   1.00
H16    H     0.47868   0.45475   0.65035   0.00000  Uiso   1.00
H17    H     0.39617   0.47567   0.47730   0.00000  Uiso   1.00
H18    H     0.19288   0.40967   0.80466   0.00000  Uiso   1.00
H19    H     0.21837   0.33559   0.74020   0.00000  Uiso   1.00
H20    H     0.48547   0.35182   0.55890   0.00000  Uiso   1.00
H21    H     0.40992   0.38034   0.38631   0.00000  Uiso   1.00
P22    P     0.78632   0.51863   0.80038   0.00000  Uiso   1.00
P23    P     0.90617   0.37011   0.60614   0.00000  Uiso   1.00
O24    O     0.82950   0.51167   0.60315   0.00000  Uiso   1.00
O25    O     0.60882   0.53078   0.82458   0.00000  Uiso   1.00
O26    O     0.85184   0.57909   0.84461   0.00000  Uiso   1.00
C27    C     0.87910   0.45972   0.90320   0.00000  Uiso   1.00
O28    O     0.98914   0.31128   0.65653   0.00000  Uiso   1.00
O29    O     0.85774   0.35116   0.43383   0.00000  Uiso   1.00
O30    O     1.02867   0.42460   0.58519   0.00000  Uiso   1.00
C31    C     0.76787   0.37973   0.74876   0.00000  Uiso   1.00
N32    N     0.80761   0.40246   0.90513   0.00000  Uiso   1.00
C33    C     0.88756   0.36045  -0.00180   0.00000  Uiso   1.00
C34    C     0.81428   0.30402   0.03160   0.00000  Uiso   1.00
C35    C     0.69115   0.30430   0.10926   0.00000  Uiso   1.00
H36    H     0.85870   0.65445   0.63558   0.00000  Uiso   1.00
H37    H     0.02304   0.54560   0.15347   0.00000  Uiso   1.00
H38    H     0.10371   0.52478   0.97903   0.00000  Uiso   1.00
H39    H     0.30968   0.58951   0.30509   0.00000  Uiso   1.00
H40    H     0.28545   0.66377   0.24137   0.00000  Uiso   1.00
H41    H     0.01631   0.64814   0.06152   0.00000  Uiso   1.00
H42    H     0.09142   0.61996   0.88836   0.00000  Uiso   1.00
P43    P     0.28500   0.98115   0.69950   0.00000  Uiso   1.00
P44    P     0.40287   0.12986   0.89556   0.00000  Uiso   1.00
O45    O     0.32987   0.98576   0.89669   0.00000  Uiso   1.00
O46    O     0.10716   0.96979   0.67625   0.00000  Uiso   1.00
O47    O     0.34882   0.92088   0.65039   0.00000  Uiso   1.00
C48    C     0.37780   0.04045   0.59831   0.00000  Uiso   1.00
O49    O     0.48529   0.18882   0.84501   0.00000  Uiso   1.00
O50    O     0.35325   0.14923   0.06710   0.00000  Uiso   1.00
O51    O     0.52647   0.07593   0.91887   0.00000  Uiso   1.00
C52    C     0.26511   0.11998   0.75215   0.00000  Uiso   1.00
N53    N     0.30564   0.09751   0.59588   0.00000  Uiso   1.00
C54    C     0.38592   0.13966   0.50356   0.00000  Uiso   1.00
C55    C     0.31312   0.19621   0.46998   0.00000  Uiso   1.00
C56    C     0.18996   0.19614   0.39241   0.00000  Uiso   1.00
H57    H     0.35682   0.84605   0.86175   0.00000  Uiso   1.00
H58    H     0.52124   0.95473   0.34906   0.00000  Uiso   1.00
H59    H     0.60335   0.97560   0.52241   0.00000  Uiso   1.00
H60    H     0.80713   0.90996   0.19514   0.00000  Uiso   1.00
H61    H     0.78206   0.83582   0.25935   0.00000  Uiso   1.00
H62    H     0.51457   0.85184   0.44060   0.00000  Uiso   1.00
H63    H     0.59010   0.88026   0.61328   0.00000  Uiso   1.00
P64    P     0.21346   0.01871   0.19965   0.00000  Uiso   1.00
P65    P     0.09408   0.87015   0.39425   0.00000  Uiso   1.00
O66    O     0.16997   0.01218   0.39689   0.00000  Uiso   1.00
O67    O     0.39103   0.03071   0.17567   0.00000  Uiso   1.00
O68    O     0.14827   0.07914   0.15452   0.00000  Uiso   1.00
C69    C     0.12068   0.95971   0.09716   0.00000  Uiso   1.00
O70    O     0.01123   0.81130   0.34375   0.00000  Uiso   1.00
O71    O     0.14275   0.85108   0.56639   0.00000  Uiso   1.00
O72    O    -0.02868   0.92452   0.41578   0.00000  Uiso   1.00
C73    C     0.23228   0.87985   0.25150   0.00000  Uiso   1.00
N74    N     0.19236   0.90250   0.09513   0.00000  Uiso   1.00
C75    C     0.11245   0.86043   1.00218   0.00000  Uiso   1.00
C76    C     0.18577   0.80400   0.96888   0.00000  Uiso   1.00
C77    C     0.30891   0.80428   0.89126   0.00000  Uiso   1.00
H78    H     0.14126   0.15446   0.36389   0.00000  Uiso   1.00
H79    H     0.97685   0.04557   0.84705   0.00000  Uiso   1.00
H80    H     0.89589   0.02476   0.02132   0.00000  Uiso   1.00
H81    H     0.69040   0.08972   0.69502   0.00000  Uiso   1.00
H82    H     0.71493   0.16395   0.75890   0.00000  Uiso   1.00
H83    H     0.98372   0.14816   0.93894   0.00000  Uiso   1.00
H84    H     0.90853   0.11994   0.11200   0.00000  Uiso   1.00
P85    P     0.28632   0.51858   0.69987   0.00000  Uiso   1.00
P86    P     0.40615   0.37008   0.89394   0.00000  Uiso   1.00
O87    O     0.32945   0.51149   0.89707   0.00000  Uiso   1.00
O88    O     0.10882   0.53076   0.67567   0.00000  Uiso   1.00
O89    O     0.35188   0.57904   0.65585   0.00000  Uiso   1.00
C90    C     0.37911   0.45970   0.59693   0.00000  Uiso   1.00
O91    O     0.48914   0.31126   0.84359   0.00000  Uiso   1.00
O92    O     0.35772   0.35116   0.06628   0.00000  Uiso   1.00
O93    O     0.52864   0.42459   0.91484   0.00000  Uiso   1.00
C94    C     0.26788   0.37968   0.75128   0.00000  Uiso   1.00
N95    N     0.30764   0.40243   0.59494   0.00000  Uiso   1.00
C96    C     0.38759   0.36043   0.50184   0.00000  Uiso   1.00
C97    C     0.31431   0.30400   0.46839   0.00000  Uiso   1.00
C98    C     0.19115   0.30429   0.39084   0.00000  Uiso   1.00
H99    H     0.35872   0.65446   0.86439   0.00000  Uiso   1.00
H100   H     0.52303   0.54557   0.34657   0.00000  Uiso   1.00
H101   H     0.60368   0.52479   0.52110   0.00000  Uiso   1.00
H102   H     0.80957   0.58939   0.19488   0.00000  Uiso   1.00
H103   H     0.78555   0.66367   0.25858   0.00000  Uiso   1.00
H104   H     0.51629   0.64812   0.43851   0.00000  Uiso   1.00
H105   H     0.59142   0.61997   0.61164   0.00000  Uiso   1.00
P106   P     0.21474   0.48106   0.19960   0.00000  Uiso   1.00
P107   P     0.09739   0.62979   0.39602   0.00000  Uiso   1.00
O108   O     0.16951   0.48518   0.39674   0.00000  Uiso   1.00
O109   O     0.39264   0.46988   0.17652   0.00000  Uiso   1.00
O110   O     0.15129   0.42084   0.14949   0.00000  Uiso   1.00
C111   C     0.12200   0.54045   0.09869   0.00000  Uiso   1.00
O112   O     0.01509   0.68879   0.34548   0.00000  Uiso   1.00
O113   O     0.14724   0.64921   0.56743   0.00000  Uiso   1.00
O114   O    -0.02642   0.57596   0.41967   0.00000  Uiso   1.00
C115   C     0.23503   0.61986   0.25246   0.00000  Uiso   1.00
N116   N     0.19434   0.59747   0.09619   0.00000  Uiso   1.00
C117   C     0.11407   0.63967   1.00402   0.00000  Uiso   1.00
C118   C     0.18690   0.69621   0.97050   0.00000  Uiso   1.00
C119   C     0.31003   0.69613   0.89287   0.00000  Uiso   1.00
H120   H     0.14325   0.34607   0.36141   0.00000  Uiso   1.00
H121   H     0.97865   0.45477   0.84973   0.00000  Uiso   1.00
H122   H     0.89620   0.47566   0.02285   0.00000  Uiso   1.00
H123   H     0.69292   0.40975   0.69539   0.00000  Uiso   1.00
H124   H     0.71829   0.33565   0.75978   0.00000  Uiso   1.00
H125   H     0.98544   0.35185   0.94114   0.00000  Uiso   1.00
H126   H     0.90988   0.38033   0.11376   0.00000  Uiso   1.00
P127   P     0.71346   0.01871   0.30027   0.00000  Uiso   1.00
P128   P     0.59407   0.87017   0.10563   0.00000  Uiso   1.00
O129   O     0.66999   0.01215   0.10303   0.00000  Uiso   1.00
O130   O     0.89104   0.03070   0.32427   0.00000  Uiso   1.00
O131   O     0.64827   0.07915   0.34536   0.00000  Uiso   1.00
C132   C     0.62069   0.95972   0.40276   0.00000  Uiso   1.00
O133   O     0.51126   0.81130   0.15611   0.00000  Uiso   1.00
O134   O     0.64270   0.85114   0.93345   0.00000  Uiso   1.00
O135   O     0.47131   0.92454   0.08422   0.00000  Uiso   1.00
C136   C     0.73228   0.87986   0.24837   0.00000  Uiso   1.00
N137   N     0.69237   0.90250   0.40475   0.00000  Uiso   1.00
C138   C     0.61246   0.86043   0.49767   0.00000  Uiso   1.00
C139   C     0.68578   0.80400   0.53097   0.00000  Uiso   1.00
C140   C     0.80890   0.80428   0.60865   0.00000  Uiso   1.00
H141   H     0.64128   0.15446   0.13604   0.00000  Uiso   1.00
H142   H     0.47685   0.04555   0.65291   0.00000  Uiso   1.00
H143   H     0.39590   0.02472   0.47866   0.00000  Uiso   1.00
H144   H     0.19042   0.08968   0.80493   0.00000  Uiso   1.00
H145   H     0.21486   0.16392   0.74103   0.00000  Uiso   1.00
H146   H     0.48371   0.14813   0.56098   0.00000  Uiso   1.00
H147   H     0.40849   0.11990   0.38793   0.00000  Uiso   1.00
P148   P     0.78499   0.98117   0.80042   0.00000  Uiso   1.00
P149   P     0.90290   0.12986   0.60436   0.00000  Uiso   1.00
O150   O     0.82987   0.98579   0.60324   0.00000  Uiso   1.00
O151   O     0.60716   0.96981   0.82367   0.00000  Uiso   1.00
O152   O     0.84881   0.92091   0.84952   0.00000  Uiso   1.00
C153   C     0.87780   0.04047   0.90166   0.00000  Uiso   1.00
O154   O     0.98535   0.18883   0.65487   0.00000  Uiso   1.00
O155   O     0.85328   0.14922   0.43281   0.00000  Uiso   1.00
O156   O     1.02648   0.07591   0.58110   0.00000  Uiso   1.00
C157   C     0.76514   0.12000   0.74778   0.00000  Uiso   1.00
N158   N     0.80566   0.09754   0.90406   0.00000  Uiso   1.00
C159   C     0.88593   0.13969  -0.00363   0.00000  Uiso   1.00
C160   C     0.81311   0.19623   0.02994   0.00000  Uiso   1.00
C161   C     0.68997   0.19615   0.10754   0.00000  Uiso   1.00
H162   H     0.85679   0.84605   0.63820   0.00000  Uiso   1.00
H163   H     0.02124   0.95472   0.15090   0.00000  Uiso   1.00
H164   H     0.10334   0.97560   0.97752   0.00000  Uiso   1.00
H165   H     0.30714   0.90994   0.30472   0.00000  Uiso   1.00
H166   H     0.28203   0.83580   0.24049   0.00000  Uiso   1.00
H167   H     0.01457   0.85184   0.05925   0.00000  Uiso   1.00
H168   H     0.09010   0.88028   0.88658   0.00000  Uiso   1.00
C169   C     0.62585   0.75006   0.49140   0.00000  Uiso   1.00
C170   C     0.87125   0.75025   0.64626   0.00000  Uiso   1.00
C171   C     0.87420   0.25008  -0.00800   0.00000  Uiso   1.00
C172   C     0.62876   0.25027   0.14677   0.00000  Uiso   1.00
C173   C     0.37426   0.25006   0.50788   0.00000  Uiso   1.00
C174   C     0.12874   0.25027   0.35327   0.00000  Uiso   1.00
C175   C     0.12582   0.75007   1.00845   0.00000  Uiso   1.00
C176   C     0.37128   0.75025   0.85371   0.00000  Uiso   1.00
Zn177  Zn    0.50039   0.49982  -0.00032   0.00000  Uiso   1.00
Zn178  Zn    0.00041   0.49985   0.50050   0.00000  Uiso   1.00
Zn179  Zn    0.49932  -0.00006   0.00022   0.00000  Uiso   1.00
Zn180  Zn   -0.00066  -0.00006   0.49972   0.00000  Uiso   1.00
H181   H    -0.47090   0.74998   0.43500   0.00000  Uiso   1.00
H182   H    -0.03329   0.75032   0.70520   0.00000  Uiso   1.00
H183   H    -0.02907   0.25001  -0.06443   0.00000  Uiso   1.00
H184   H    -0.46671   0.25033   0.20568   0.00000  Uiso   1.00
H185   H    -0.52897   0.24999   0.56421   0.00000  Uiso   1.00
H186   H    -0.96675   0.25035   0.29442   0.00000  Uiso   1.00
H187   H    -0.97096   0.74999   1.06480   0.00000  Uiso   1.00
H188   H    -0.53324   0.75032   0.79482   0.00000  Uiso   1.00
loop_
_geom_bond_atom_site_label_1
_geom_bond_atom_site_label_2
_geom_bond_distance
_geom_bond_site_symmetry_2
_ccdc_geom_bond_type
P1     O3      1.758   .     S
P1     O4      1.810   .     S
P1     O5      1.548   .     D
P1     C6      1.836   .     S
P2     O7      1.613   .     D
P2     O8      1.616   1_554 S
P2     O9      1.738   .     S
P2     C10     1.864   .     S
O3     Zn177   1.943   .     S
O4     Zn178   1.981   1_655 S
C6     N11     1.464   .     S
C6     H100    1.104   .     S
C6     H101    1.102   .     S
O8     P2      1.616   1_556 S
O9     Zn177   1.855   .     S
C10    N11     1.491   .     S
C10    H102    1.106   .     S
C10    H103    1.106   .     S
N11    C12     1.470   .     S
C12    C13     1.486   .     S
C12    H104    1.113   .     S
C12    H105    1.111   .     S
C13    C14     1.403   .     D
C13    C169    1.387   .     S
C14    C170    1.396   .     S
C14    H36     1.078   .     S
H15    C35     1.079   .     S
H16    C90     1.104   .     S
H17    C90     1.102   .     S
H18    C94     1.106   .     S
H19    C94     1.106   .     S
H20    C96     1.113   .     S
H21    C96     1.111   .     S
P22    O24     1.758   .     S
P22    O25     1.811   .     S
P22    O26     1.548   .     D
P22    C27     1.837   .     S
P23    O28     1.613   .     D
P23    O29     1.616   .     S
P23    O30     1.737   .     S
P23    C31     1.863   .     S
O24    Zn178   1.944   1_655 S
O25    Zn177   1.981   1_556 S
C27    N32     1.465   .     S
C27    H121    1.104   .     S
C27    H122    1.102   1_556 S
O30    Zn178   1.852   1_655 S
C31    N32     1.492   .     S
C31    H123    1.106   .     S
C31    H124    1.106   .     S
N32    C33     1.470   1_556 S
C33    N32     1.470   1_554 S
C33    C34     1.486   .     S
C33    H125    1.113   1_554 S
C33    H126    1.111   .     S
C34    C35     1.403   .     D
C34    C171    1.387   .     S
C35    C172    1.396   .     S
H37    C111    1.104   .     S
H38    C111    1.102   1_556 S
H39    C115    1.106   .     S
H40    C115    1.106   .     S
H41    C117    1.113   1_554 S
H42    C117    1.111   .     S
P43    O45     1.758   .     S
P43    O46     1.810   .     S
P43    O47     1.548   .     D
P43    C48     1.836   1_565 S
P44    O49     1.613   .     D
P44    O50     1.616   1_556 S
P44    O51     1.738   .     S
P44    C52     1.864   .     S
O45    Zn179   1.943   1_566 S
O46    Zn180   1.981   1_565 S
C48    P43     1.836   1_545 S
C48    N53     1.464   .     S
C48    H142    1.104   .     S
C48    H143    1.102   .     S
O50    P44     1.616   1_554 S
O51    Zn179   1.854   1_556 S
C52    N53     1.491   .     S
C52    H144    1.106   .     S
C52    H145    1.106   .     S
N53    C54     1.470   .     S
C54    C55     1.486   .     S
C54    H146    1.113   .     S
C54    H147    1.111   .     S
C55    C56     1.403   .     D
C55    C173    1.387   .     S
C56    C174    1.396   .     S
C56    H78     1.078   .     S
H57    C77     1.079   .     S
H58    C132    1.104   .     S
H59    C132    1.102   .     S
H60    C136    1.106   .     S
H61    C136    1.106   .     S
H62    C138    1.113   .     S
H63    C138    1.111   .     S
P64    O66     1.758   .     S
P64    O67     1.811   .     S
P64    O68     1.548   .     D
P64    C69     1.837   1_545 S
P65    O70     1.613   .     S
P65    O71     1.616   .     D
P65    O72     1.737   .     S
P65    C73     1.863   .     S
O66    Zn180   1.944   .     S
O67    Zn179   1.981   .     S
C69    P64     1.837   1_565 S
C69    N74     1.465   .     S
C69    H163    1.104   .     S
C69    H164    1.102   1_554 S
O72    Zn180   1.852   1_565 S
C73    N74     1.492   .     S
C73    H165    1.106   .     S
C73    H166    1.106   .     S
N74    C75     1.470   1_554 S
C75    N74     1.470   1_556 S
C75    C76     1.486   .     S
C75    H167    1.113   1_556 S
C75    H168    1.111   .     S
C76    C77     1.403   .     D
C76    C175    1.387   .     S
C77    C176    1.396   .     S
H79    C153    1.104   .     S
H80    C153    1.102   1_554 S
H81    C157    1.106   .     S
H82    C157    1.106   .     S
H83    C159    1.113   1_556 S
H84    C159    1.111   .     S
P85    O87     1.758   .     S
P85    O88     1.811   .     S
P85    O89     1.548   .     D
P85    C90     1.837   .     S
P86    O91     1.613   .     D
P86    O92     1.616   1_556 S
P86    O93     1.737   .     S
P86    C94     1.863   .     S
O87    Zn177   1.944   1_556 S
O88    Zn178   1.981   .     S
C90    N95     1.465   .     S
O92    P86     1.616   1_554 S
O93    Zn177   1.852   1_556 S
C94    N95     1.492   .     S
N95    C96     1.470   .     S
C96    C97     1.486   .     S
C97    C98     1.403   .     S
C97    C173    1.387   .     D
C98    C174    1.396   .     D
C98    H120    1.079   .     S
H99    C119    1.078   .     S
P106   O108    1.758   .     S
P106   O109    1.810   .     S
P106   O110    1.548   .     D
P106   C111    1.836   .     S
P107   O112    1.613   .     S
P107   O113    1.616   .     D
P107   O114    1.738   .     S
P107   C115    1.864   .     S
O108   Zn178   1.943   .     S
O109   Zn177   1.981   .     S
C111   N116    1.464   .     S
C111   H38     1.102   1_554 S
O114   Zn178   1.855   .     S
C115   N116    1.491   .     S
N116   C117    1.470   1_554 S
C117   N116    1.470   1_556 S
C117   C118    1.486   .     S
C117   H41     1.113   1_556 S
C118   C119    1.403   .     S
C118   C175    1.387   .     D
C119   C176    1.396   .     D
H122   C27     1.102   1_554 S
H125   C33     1.113   1_556 S
P127   O129    1.758   .     S
P127   O130    1.811   .     S
P127   O131    1.548   .     D
P127   C132    1.837   1_545 S
P128   O133    1.613   .     D
P128   O134    1.616   1_554 S
P128   O135    1.737   .     S
P128   C136    1.863   .     S
O129   Zn179   1.944   .     S
O130   Zn180   1.981   1_655 S
C132   P127    1.837   1_565 S
C132   N137    1.465   .     S
O134   P128    1.616   1_556 S
O135   Zn179   1.852   1_565 S
C136   N137    1.492   .     S
N137   C138    1.470   .     S
C138   C139    1.486   .     S
C139   C140    1.403   .     S
C139   C169    1.387   .     D
C140   C170    1.396   .     D
C140   H162    1.079   .     S
H141   C161    1.078   .     S
P148   O150    1.758   .     S
P148   O151    1.810   .     S
P148   O152    1.548   .     D
P148   C153    1.837   1_565 S
P149   O154    1.613   .     D
P149   O155    1.616   .     S
P149   O156    1.738   .     S
P149   C157    1.864   .     S
O150   Zn180   1.943   1_665 S
O151   Zn179   1.981   1_566 S
C153   P148    1.837   1_545 S
C153   N158    1.464   .     S
C153   H80     1.102   1_556 S
O156   Zn180   1.854   1_655 S
C157   N158    1.491   .     S
N158   C159    1.470   1_556 S
C159   N158    1.470   1_554 S
C159   C160    1.486   .     S
C159   H83     1.113   1_554 S
C160   C161    1.403   .     S
C160   C171    1.387   .     D
C161   C172    1.396   .     D
H164   C69     1.102   1_556 S
H167   C75     1.113   1_554 S
C169   H181    1.084   1_655 S
C170   H182    1.082   1_655 S
C171   H183    1.084   1_655 S
C172   H184    1.082   1_655 S
C173   H185    1.084   1_655 S
C174   H186    1.082   1_655 S
C175   H187    1.084   1_655 S
C176   H188    1.082   1_655 S
Zn177  O93     1.852   1_554 S
Zn177  O87     1.944   1_554 S
Zn177  O25     1.981   1_554 S
Zn178  O30     1.852   1_455 S
Zn178  O24     1.944   1_455 S
Zn178  O4      1.981   1_455 S
Zn179  O51     1.854   1_554 S
Zn179  O135    1.852   1_545 S
Zn179  O45     1.943   1_544 S
Zn179  O151    1.981   1_544 S
Zn180  O72     1.852   1_545 S
Zn180  O156    1.854   1_455 S
Zn180  O150    1.943   1_445 S
Zn180  O130    1.981   1_455 S
Zn180  O46     1.981   1_545 S
H181   C169    1.084   1_455 S
H182   C170    1.082   1_455 S
H183   C171    1.084   1_455 S
H184   C172    1.082   1_455 S
H185   C173    1.084   1_455 S
H186   C174    1.082   1_455 S
H187   C175    1.084   1_455 S
H188   C176    1.082   1_455 S
