data_MIQSOW_direct
_audit_creation_date              2024-06-11
_audit_creation_method            'Materials Studio'
_symmetry_space_group_name_H-M    'P1'
_symmetry_Int_Tables_number       1
_symmetry_cell_setting            triclinic
loop_
_symmetry_equiv_pos_as_xyz
  x,y,z
_cell_length_a                    6.9549
_cell_length_b                    7.5700
_cell_length_c                    10.6511
_cell_angle_alpha                 87.0710
_cell_angle_beta                  81.0180
_cell_angle_gamma                 73.8310
loop_
_atom_site_label
_atom_site_type_symbol
_atom_site_fract_x
_atom_site_fract_y
_atom_site_fract_z
_atom_site_U_iso_or_equiv
_atom_site_adp_type
_atom_site_occupancy
P1     P    -0.30007   0.26285   0.10459   0.00000  Uiso   1.00
P2     P    -0.52883  -0.00601   0.30315   0.00000  Uiso   1.00
O3     O    -0.50099   0.21704   0.04474   0.00000  Uiso   1.00
O4     O    -0.32347   0.49549   0.08937   0.00000  Uiso   1.00
O5     O    -0.13728   0.21322  -0.03738   0.00000  Uiso   1.00
C6     C    -0.14073   0.17111   0.22665   0.00000  Uiso   1.00
O7     O    -0.52452  -0.15306   0.18206   0.00000  Uiso   1.00
O8     O    -0.74412   0.01502   0.39297   0.00000  Uiso   1.00
O9     O    -0.37616  -0.13388   0.39117   0.00000  Uiso   1.00
C10    C    -0.46899   0.22145   0.28459   0.00000  Uiso   1.00
N11    N    -0.28481   0.21369   0.33904   0.00000  Uiso   1.00
C12    C    -0.31297   0.39909   0.38820   0.00000  Uiso   1.00
C13    C    -0.13550   0.43582   0.43367   0.00000  Uiso   1.00
C14    C    -0.03294   0.54873   0.35942   0.00000  Uiso   1.00
C15    C    -0.11290   0.40668   0.56212   0.00000  Uiso   1.00
O16    O     0.81738   0.85528   0.06429   0.00000  Uiso   1.00
H17    H    -0.05202   0.57633   0.26063   0.00000  Uiso   1.00
H18    H    -0.01625   0.23772   0.22169   0.00000  Uiso   1.00
H19    H    -0.07483   0.02019   0.21926   0.00000  Uiso   1.00
H20    H    -0.59982   0.29533   0.35446   0.00000  Uiso   1.00
H21    H    -0.52750   0.34346   0.19565   0.00000  Uiso   1.00
H22    H    -0.42702   0.41018   0.47161   0.00000  Uiso   1.00
H23    H    -0.37736   0.51088   0.32219   0.00000  Uiso   1.00
H24    H    -0.19372   0.32277   0.62197   0.00000  Uiso   1.00
P25    P     0.38406   0.66987   0.87212   0.00000  Uiso   1.00
P26    P     0.45799   1.04634   0.73909   0.00000  Uiso   1.00
O27    O     0.59766   0.72613   0.90707   0.00000  Uiso   1.00
O28    O     0.45967   0.43696   0.84129   0.00000  Uiso   1.00
O29    O     0.28500   0.64009   1.02920   0.00000  Uiso   1.00
C30    C     0.15843   0.78355   0.79759   0.00000  Uiso   1.00
O31    O     0.63538   1.04670   0.83703   0.00000  Uiso   1.00
O32    O     0.51980   1.15651   0.61267   0.00000  Uiso   1.00
O33    O     0.24560   1.18139   0.80280   0.00000  Uiso   1.00
C34    C     0.44536   0.81201   0.69804   0.00000  Uiso   1.00
N35    N     0.24473   0.81293   0.66989   0.00000  Uiso   1.00
C36    C     0.28234   0.65160   0.58740   0.00000  Uiso   1.00
C37    C     0.10473   0.61091   0.54331   0.00000  Uiso   1.00
C38    C     0.00682   0.49242   0.61603   0.00000  Uiso   1.00
C39    C     0.08396   0.63696   0.41386   0.00000  Uiso   1.00
O40    O     0.24271   0.01100   1.02806   0.00000  Uiso   1.00
H41    H     0.02818   0.45958   0.71333   0.00000  Uiso   1.00
H42    H     0.05081   0.69917   0.80536   0.00000  Uiso   1.00
H43    H     0.07747   0.91693   0.84354   0.00000  Uiso   1.00
H44    H     0.55022   0.79778   0.60759   0.00000  Uiso   1.00
H45    H     0.55980   0.65940   0.74209   0.00000  Uiso   1.00
H46    H     0.38034   0.67741   0.50010   0.00000  Uiso   1.00
H47    H     0.36507   0.52426   0.63306   0.00000  Uiso   1.00
H48    H     0.16550   0.71890   0.35282   0.00000  Uiso   1.00
Mg49   Mg    0.54381  -0.04815   0.01051   0.00000  Uiso   1.00
loop_
_geom_bond_atom_site_label_1
_geom_bond_atom_site_label_2
_geom_bond_distance
_geom_bond_site_symmetry_2
_ccdc_geom_bond_type
P1     O3      1.746   .     S
P1     O4      1.724   .     S
P1     O5      1.731   .     S
P1     C6      1.825   .     S
P1     H21     1.691   .     S
P2     O7      1.738   .     S
P2     O8      1.618   .     S
P2     O9      1.609   .     D
P2     C10     1.875   .     S
O3     Mg49    1.988   1_455 S
C6     N11     1.423   .     S
C6     H18     1.110   .     S
C6     H19     1.108   .     S
O7     Mg49    1.996   1_455 S
C10    N11     1.472   .     S
C10    H20     1.115   .     S
C10    H21     1.318   .     S
N11    C12     1.474   .     S
C12    C13     1.492   .     S
C12    H22     1.084   .     S
C12    H23     1.112   .     S
C13    C14     1.400   .     S
C13    C15     1.401   .     D
C14    C39     1.390   .     D
C14    H17     1.084   .     S
C15    C38     1.390   .     S
C15    H24     1.082   .     S
O16    Mg49    2.001   1_565 S
P25    O27     1.752   .     S
P25    O28     1.727   .     S
P25    O29     1.736   .     S
P25    C30     1.844   .     S
P25    H45     1.687   .     S
P26    O31     1.736   .     S
P26    O32     1.612   .     S
P26    O33     1.614   .     D
P26    C34     1.877   .     S
O27    Mg49    1.995   1_566 S
C30    N35     1.431   .     S
C30    H42     1.103   .     S
C30    H43     1.106   .     S
O31    Mg49    2.022   1_566 S
C34    N35     1.470   .     S
C34    H44     1.104   .     S
C34    H45     1.318   .     S
N35    C36     1.481   .     S
C36    C37     1.500   .     S
C36    H46     1.107   .     S
C36    H47     1.108   .     S
C37    C38     1.405   .     D
C37    C39     1.407   .     S
C38    H41     1.077   .     S
C39    H48     1.081   .     S
O40    Mg49    1.996   1_556 S
Mg49   O3      1.988   1_655 S
Mg49   O7      1.996   1_655 S
Mg49   O16     2.001   1_545 S
Mg49   O31     2.022   1_544 S
Mg49   O40     1.996   1_554 S
Mg49   O27     1.995   1_544 S
