data_MOYZAE_FSR
_audit_creation_date              2024-06-11
_audit_creation_method            'Materials Studio'
_symmetry_space_group_name_H-M    'P1'
_symmetry_Int_Tables_number       1
_symmetry_cell_setting            triclinic
loop_
_symmetry_equiv_pos_as_xyz
  x,y,z
_cell_length_a                    11.1292
_cell_length_b                    18.8549
_cell_length_c                    19.3898
_cell_angle_alpha                 90.0000
_cell_angle_beta                  99.5100
_cell_angle_gamma                 90.0000
loop_
_atom_site_label
_atom_site_type_symbol
_atom_site_fract_x
_atom_site_fract_y
_atom_site_fract_z
_atom_site_U_iso_or_equiv
_atom_site_adp_type
_atom_site_occupancy
Cu1    Cu    0.57677   0.51744   0.78744   0.00000  Uiso   1.00
Cu2    Cu    0.26096   0.75087   0.03910   0.00000  Uiso   1.00
S3     S     0.43184   0.68101   0.18191   0.00000  Uiso   1.00
S4     S     0.79224   0.79826   0.07636   0.00000  Uiso   1.00
O5     O     0.59609   0.53922   0.88619   0.00000  Uiso   1.00
O6     O     0.61230   0.64913   0.84798   0.00000  Uiso   1.00
O7     O     0.79850   0.76320   0.44330   0.00000  Uiso   1.00
O8     O     0.62030   0.71080   0.43670   0.00000  Uiso   1.00
O9     O     0.41562   0.70527   0.10974   0.00000  Uiso   1.00
O10    O     0.41914   0.60491   0.18735   0.00000  Uiso   1.00
O11    O     0.35510   0.71911   0.22281   0.00000  Uiso   1.00
O12    O     0.78020   0.83369   0.00925   0.00000  Uiso   1.00
O13    O     0.73980   0.83631   0.12780   0.00000  Uiso   1.00
O14    O     0.91730   0.77648   0.10181   0.00000  Uiso   1.00
O15    O     0.16880   0.78761   0.12032   0.00000  Uiso   1.00
H16    H     0.09407   0.77878   0.12084   0.00000  Uiso   1.00
H17    H     0.21183   0.76397   0.15267   0.00000  Uiso   1.00
N18    N     0.76060   0.52073   0.78792   0.00000  Uiso   1.00
N19    N     0.39120   0.52700   0.77794   0.00000  Uiso   1.00
N20    N     0.55566   0.50631   0.68410   0.00000  Uiso   1.00
N21    N     0.16990   0.65858   0.03174   0.00000  Uiso   1.00
N22    N     0.34710   0.84396   0.03796   0.00000  Uiso   1.00
C23    C     0.61410   0.60567   0.89630   0.00000  Uiso   1.00
C24    C     0.63650   0.62907   0.97112   0.00000  Uiso   1.00
C25    C     0.68880   0.69463   0.98951   0.00000  Uiso   1.00
H26    H     0.70900   0.72439   0.95493   0.00000  Uiso   1.00
C27    C     0.71130   0.71637   0.05882   0.00000  Uiso   1.00
C28    C     0.67550   0.67389   0.11136   0.00000  Uiso   1.00
C29    C     0.62590   0.60793   0.09177   0.00000  Uiso   1.00
H30    H     0.60352   0.57830   0.12586   0.00000  Uiso   1.00
C31    C     0.60860   0.58499   0.02332   0.00000  Uiso   1.00
H32    H     0.57822   0.53974   0.01220   0.00000  Uiso   1.00
C33    C     0.68620   0.69540   0.18639   0.00000  Uiso   1.00
C34    C     0.58520   0.69962   0.22109   0.00000  Uiso   1.00
C35    C     0.60020   0.71480   0.29172   0.00000  Uiso   1.00
H36    H     0.53227   0.71672   0.31388   0.00000  Uiso   1.00
C37    C     0.71420   0.72717   0.32989   0.00000  Uiso   1.00
C38    C     0.81450   0.72483   0.29603   0.00000  Uiso   1.00
H39    H     0.89168   0.73420   0.32085   0.00000  Uiso   1.00
C40    C     0.80050   0.70878   0.22606   0.00000  Uiso   1.00
H41    H     0.86915   0.70675   0.20450   0.00000  Uiso   1.00
C42    C     0.70650   0.73300   0.40960   0.00000  Uiso   1.00
C43    C     0.29720   0.90720   0.03690   0.00000  Uiso   1.00
H44    H     0.21835   0.91029   0.04667   0.00000  Uiso   1.00
C45    C     0.35090   0.96650   0.02300   0.00000  Uiso   1.00
H46    H     0.30795   0.00888   0.02260   0.00000  Uiso   1.00
C47    C     0.46680   0.96822   0.00931   0.00000  Uiso   1.00
C48    C     0.52300   0.90290   0.00780   0.00000  Uiso   1.00
H49    H     0.60105   0.90009   0.99674   0.00000  Uiso   1.00
C50    C     0.46030   0.83830   0.02340   0.00000  Uiso   1.00
H51    H     0.49807   0.79428   0.02335   0.00000  Uiso   1.00
C52    C     0.05030   0.65856   0.02090   0.00000  Uiso   1.00
H53    H     0.01012   0.70176   0.02156   0.00000  Uiso   1.00
C54    C     0.98150   0.59824   0.00880   0.00000  Uiso   1.00
H55    H     0.89702   0.60143   0.00206   0.00000  Uiso   1.00
C56    C     0.03560   0.53336   0.00658   0.00000  Uiso   1.00
C57    C     0.16060   0.53392   0.01821   0.00000  Uiso   1.00
H58    H     0.20301   0.49147   0.01770   0.00000  Uiso   1.00
C59    C     0.22390   0.59656   0.03062   0.00000  Uiso   1.00
H60    H     0.30860   0.59501   0.03858   0.00000  Uiso   1.00
C61    C     0.81490   0.58206   0.77750   0.00000  Uiso   1.00
H62    H     0.76833   0.62327   0.77309   0.00000  Uiso   1.00
C63    C     0.93730   0.58694   0.77310   0.00000  Uiso   1.00
H64    H     0.97216   0.63078   0.76672   0.00000  Uiso   1.00
C65    C     0.00720   0.52638   0.77818   0.00000  Uiso   1.00
C66    C     0.95020   0.46313   0.78738   0.00000  Uiso   1.00
H67    H     0.99404   0.42093   0.79039   0.00000  Uiso   1.00
C68    C     0.82790   0.46254   0.79211   0.00000  Uiso   1.00
H69    H     0.79104   0.41931   0.79854   0.00000  Uiso   1.00
C70    C     0.13990   0.52836   0.77545   0.00000  Uiso   1.00
C71    C     0.19390   0.47809   0.73838   0.00000  Uiso   1.00
H72    H     0.14669   0.44370   0.71230   0.00000  Uiso   1.00
C73    C     0.31810   0.47949   0.74049   0.00000  Uiso   1.00
H74    H     0.35296   0.44591   0.71472   0.00000  Uiso   1.00
C75    C     0.33850   0.57669   0.81218   0.00000  Uiso   1.00
H76    H     0.38742   0.61106   0.83721   0.00000  Uiso   1.00
C77    C     0.21440   0.57896   0.81183   0.00000  Uiso   1.00
H78    H     0.18107   0.61452   0.83606   0.00000  Uiso   1.00
C79    C     0.51170   0.56167   0.64619   0.00000  Uiso   1.00
H80    H     0.49390   0.60271   0.66912   0.00000  Uiso   1.00
C81    C     0.49130   0.56106   0.57437   0.00000  Uiso   1.00
H82    H     0.46273   0.60171   0.54982   0.00000  Uiso   1.00
C83    C     0.51270   0.50099   0.53876   0.00000  Uiso   1.00
C84    C     0.56110   0.44370   0.57869   0.00000  Uiso   1.00
H85    H     0.57986   0.40206   0.55706   0.00000  Uiso   1.00
C86    C     0.58110   0.44858   0.65028   0.00000  Uiso   1.00
H87    H     0.61398   0.40965   0.67622   0.00000  Uiso   1.00
Cu88   Cu    0.92323   0.01744   0.71256   0.00000  Uiso   1.00
Cu89   Cu    0.23904   0.25087   0.46090   0.00000  Uiso   1.00
S90    S     0.06816   0.18101   0.31809   0.00000  Uiso   1.00
S91    S     0.70776   0.29826   0.42364   0.00000  Uiso   1.00
O92    O     0.90391   0.03922   0.61381   0.00000  Uiso   1.00
O93    O     0.88770   0.14913   0.65202   0.00000  Uiso   1.00
O94    O     0.70150   0.26320   0.05670   0.00000  Uiso   1.00
O95    O     0.87970   0.21080   0.06330   0.00000  Uiso   1.00
O96    O     0.08438   0.20527   0.39026   0.00000  Uiso   1.00
O97    O     0.08086   0.10491   0.31265   0.00000  Uiso   1.00
O98    O     0.14490   0.21911   0.27719   0.00000  Uiso   1.00
O99    O     0.71980   0.33369   0.49075   0.00000  Uiso   1.00
O100   O     0.76020   0.33631   0.37220   0.00000  Uiso   1.00
O101   O     0.58270   0.27648   0.39819   0.00000  Uiso   1.00
O102   O     0.33120   0.28761   0.37968   0.00000  Uiso   1.00
H103   H     0.40593   0.27878   0.37916   0.00000  Uiso   1.00
H104   H     0.28817   0.26397   0.34733   0.00000  Uiso   1.00
N105   N     0.73940   0.02073   0.71208   0.00000  Uiso   1.00
N106   N     0.10880   0.02700   0.72206   0.00000  Uiso   1.00
N107   N     0.94434   0.00631   0.81590   0.00000  Uiso   1.00
N108   N     0.33010   0.15858   0.46826   0.00000  Uiso   1.00
N109   N     0.15290   0.34396   0.46204   0.00000  Uiso   1.00
C110   C     0.88590   0.10567   0.60370   0.00000  Uiso   1.00
C111   C     0.86350   0.12907   0.52888   0.00000  Uiso   1.00
C112   C     0.81120   0.19463   0.51049   0.00000  Uiso   1.00
H113   H     0.79100   0.22439   0.54507   0.00000  Uiso   1.00
C114   C     0.78870   0.21637   0.44118   0.00000  Uiso   1.00
C115   C     0.82450   0.17389   0.38864   0.00000  Uiso   1.00
C116   C     0.87410   0.10793   0.40823   0.00000  Uiso   1.00
H117   H     0.89648   0.07830   0.37414   0.00000  Uiso   1.00
C118   C     0.89140   0.08499   0.47668   0.00000  Uiso   1.00
H119   H     0.92178   0.03974   0.48780   0.00000  Uiso   1.00
C120   C     0.81380   0.19540   0.31361   0.00000  Uiso   1.00
C121   C     0.91480   0.19962   0.27891   0.00000  Uiso   1.00
C122   C     0.89980   0.21480   0.20828   0.00000  Uiso   1.00
H123   H     0.96773   0.21672   0.18612   0.00000  Uiso   1.00
C124   C     0.78580   0.22717   0.17011   0.00000  Uiso   1.00
C125   C     0.68550   0.22483   0.20397   0.00000  Uiso   1.00
H126   H     0.60831   0.23420   0.17915   0.00000  Uiso   1.00
C127   C     0.69950   0.20878   0.27394   0.00000  Uiso   1.00
H128   H     0.63085   0.20675   0.29550   0.00000  Uiso   1.00
C129   C     0.79350   0.23300   0.09040   0.00000  Uiso   1.00
C130   C     0.20280   0.40720   0.46310   0.00000  Uiso   1.00
H131   H     0.28165   0.41029   0.45333   0.00000  Uiso   1.00
C132   C     0.14910   0.46650   0.47700   0.00000  Uiso   1.00
H133   H     0.19205   0.50888   0.47740   0.00000  Uiso   1.00
C134   C     0.03320   0.46822   0.49069   0.00000  Uiso   1.00
C135   C     0.97700   0.40290   0.49220   0.00000  Uiso   1.00
H136   H     0.89895   0.40009   0.50326   0.00000  Uiso   1.00
C137   C     0.03970   0.33830   0.47660   0.00000  Uiso   1.00
H138   H     0.00193   0.29428   0.47665   0.00000  Uiso   1.00
C139   C     0.44970   0.15856   0.47910   0.00000  Uiso   1.00
H140   H     0.48988   0.20176   0.47844   0.00000  Uiso   1.00
C141   C     0.51850   0.09824   0.49120   0.00000  Uiso   1.00
H142   H     0.60298   0.10143   0.49794   0.00000  Uiso   1.00
C143   C     0.46440   0.03336   0.49342   0.00000  Uiso   1.00
C144   C     0.33940   0.03392   0.48179   0.00000  Uiso   1.00
H145   H     0.29699   0.99147   0.48230   0.00000  Uiso   1.00
C146   C     0.27610   0.09656   0.46938   0.00000  Uiso   1.00
H147   H     0.19140   0.09501   0.46142   0.00000  Uiso   1.00
C148   C     0.68510   0.08206   0.72250   0.00000  Uiso   1.00
H149   H     0.73167   0.12327   0.72691   0.00000  Uiso   1.00
C150   C     0.56270   0.08694   0.72690   0.00000  Uiso   1.00
H151   H     0.52784   0.13078   0.73328   0.00000  Uiso   1.00
C152   C     0.49280   0.02638   0.72182   0.00000  Uiso   1.00
C153   C     0.54980   0.96313   0.71262   0.00000  Uiso   1.00
H154   H     0.50596   0.92093   0.70961   0.00000  Uiso   1.00
C155   C     0.67210   0.96254   0.70789   0.00000  Uiso   1.00
H156   H     0.70896   0.91931   0.70146   0.00000  Uiso   1.00
C157   C     0.36010   0.02836   0.72455   0.00000  Uiso   1.00
C158   C     0.30610   0.97809   0.76162   0.00000  Uiso   1.00
H159   H     0.35331   0.94370   0.78770   0.00000  Uiso   1.00
C160   C     0.18190   0.97949   0.75951   0.00000  Uiso   1.00
H161   H     0.14704   0.94591   0.78528   0.00000  Uiso   1.00
C162   C     0.16150   0.07669   0.68782   0.00000  Uiso   1.00
H163   H     0.11258   0.11106   0.66279   0.00000  Uiso   1.00
C164   C     0.28560   0.07896   0.68817   0.00000  Uiso   1.00
H165   H     0.31893   0.11452   0.66394   0.00000  Uiso   1.00
C166   C     0.98830   0.06167   0.85381   0.00000  Uiso   1.00
H167   H     0.00610   0.10271   0.83088   0.00000  Uiso   1.00
C168   C     0.00870   0.06106   0.92563   0.00000  Uiso   1.00
H169   H     0.03727   0.10171   0.95018   0.00000  Uiso   1.00
C170   C     0.98730   0.00099   0.96124   0.00000  Uiso   1.00
C171   C     0.93890   0.94370   0.92131   0.00000  Uiso   1.00
H172   H     0.92014   0.90206   0.94294   0.00000  Uiso   1.00
C173   C     0.91890   0.94858   0.84972   0.00000  Uiso   1.00
H174   H     0.88602   0.90965   0.82378   0.00000  Uiso   1.00
Cu175  Cu    0.42323   0.48256   0.21256   0.00000  Uiso   1.00
Cu176  Cu    0.73904   0.24913   0.96090   0.00000  Uiso   1.00
S177   S     0.56816   0.31899   0.81809   0.00000  Uiso   1.00
S178   S     0.20776   0.20174   0.92364   0.00000  Uiso   1.00
O179   O     0.40391   0.46078   0.11381   0.00000  Uiso   1.00
O180   O     0.38770   0.35087   0.15202   0.00000  Uiso   1.00
O181   O     0.20150   0.23680   0.55670   0.00000  Uiso   1.00
O182   O     0.37970   0.28920   0.56330   0.00000  Uiso   1.00
O183   O     0.58438   0.29473   0.89026   0.00000  Uiso   1.00
O184   O     0.58086   0.39509   0.81265   0.00000  Uiso   1.00
O185   O     0.64490   0.28089   0.77719   0.00000  Uiso   1.00
O186   O     0.21980   0.16631   0.99075   0.00000  Uiso   1.00
O187   O     0.26020   0.16369   0.87220   0.00000  Uiso   1.00
O188   O     0.08270   0.22352   0.89819   0.00000  Uiso   1.00
O189   O     0.83120   0.21239   0.87968   0.00000  Uiso   1.00
H190   H     0.90593   0.22122   0.87916   0.00000  Uiso   1.00
H191   H     0.78817   0.23603   0.84733   0.00000  Uiso   1.00
N192   N     0.23940   0.47927   0.21208   0.00000  Uiso   1.00
N193   N     0.60880   0.47300   0.22206   0.00000  Uiso   1.00
N194   N     0.44434   0.49369   0.31590   0.00000  Uiso   1.00
N195   N     0.83010   0.34142   0.96826   0.00000  Uiso   1.00
N196   N     0.65290   0.15604   0.96204   0.00000  Uiso   1.00
C197   C     0.38590   0.39433   0.10370   0.00000  Uiso   1.00
C198   C     0.36350   0.37093   0.02888   0.00000  Uiso   1.00
C199   C     0.31120   0.30537   0.01049   0.00000  Uiso   1.00
H200   H     0.29100   0.27561   0.04507   0.00000  Uiso   1.00
C201   C     0.28870   0.28363   0.94118   0.00000  Uiso   1.00
C202   C     0.32450   0.32611   0.88864   0.00000  Uiso   1.00
C203   C     0.37410   0.39207   0.90823   0.00000  Uiso   1.00
H204   H     0.39648   0.42170   0.87414   0.00000  Uiso   1.00
C205   C     0.39140   0.41501   0.97668   0.00000  Uiso   1.00
H206   H     0.42178   0.46026   0.98780   0.00000  Uiso   1.00
C207   C     0.31380   0.30460   0.81361   0.00000  Uiso   1.00
C208   C     0.41480   0.30038   0.77891   0.00000  Uiso   1.00
C209   C     0.39980   0.28520   0.70828   0.00000  Uiso   1.00
H210   H     0.46773   0.28328   0.68612   0.00000  Uiso   1.00
C211   C     0.28580   0.27283   0.67011   0.00000  Uiso   1.00
C212   C     0.18550   0.27517   0.70397   0.00000  Uiso   1.00
H213   H     0.10832   0.26580   0.67915   0.00000  Uiso   1.00
C214   C     0.19950   0.29122   0.77394   0.00000  Uiso   1.00
H215   H     0.13085   0.29325   0.79550   0.00000  Uiso   1.00
C216   C     0.29350   0.26700   0.59040   0.00000  Uiso   1.00
C217   C     0.70280   0.09280   0.96310   0.00000  Uiso   1.00
H218   H     0.78165   0.08971   0.95333   0.00000  Uiso   1.00
C219   C     0.64910   0.03350   0.97700   0.00000  Uiso   1.00
H220   H     0.69205   0.99112   0.97740   0.00000  Uiso   1.00
C221   C     0.53320   0.03178   0.99069   0.00000  Uiso   1.00
C222   C     0.47700   0.09710   0.99220   0.00000  Uiso   1.00
H223   H     0.39895   0.09991   0.00326   0.00000  Uiso   1.00
C224   C     0.53970   0.16170   0.97660   0.00000  Uiso   1.00
H225   H     0.50193   0.20572   0.97665   0.00000  Uiso   1.00
C226   C     0.94970   0.34144   0.97910   0.00000  Uiso   1.00
H227   H     0.98988   0.29824   0.97844   0.00000  Uiso   1.00
C228   C     0.01850   0.40176   0.99120   0.00000  Uiso   1.00
H229   H     0.10298   0.39857   0.99794   0.00000  Uiso   1.00
C230   C     0.96440   0.46664   0.99342   0.00000  Uiso   1.00
C231   C     0.83940   0.46608   0.98179   0.00000  Uiso   1.00
H232   H     0.79699   0.50853   0.98230   0.00000  Uiso   1.00
C233   C     0.77610   0.40344   0.96938   0.00000  Uiso   1.00
H234   H     0.69140   0.40499   0.96142   0.00000  Uiso   1.00
C235   C     0.18510   0.41794   0.22250   0.00000  Uiso   1.00
H236   H     0.23167   0.37673   0.22691   0.00000  Uiso   1.00
C237   C     0.06270   0.41306   0.22690   0.00000  Uiso   1.00
H238   H     0.02784   0.36922   0.23328   0.00000  Uiso   1.00
C239   C     0.99280   0.47362   0.22182   0.00000  Uiso   1.00
C240   C     0.04980   0.53687   0.21262   0.00000  Uiso   1.00
H241   H     0.00596   0.57907   0.20961   0.00000  Uiso   1.00
C242   C     0.17210   0.53746   0.20789   0.00000  Uiso   1.00
H243   H     0.20896   0.58069   0.20146   0.00000  Uiso   1.00
C244   C     0.86010   0.47164   0.22455   0.00000  Uiso   1.00
C245   C     0.80610   0.52191   0.26162   0.00000  Uiso   1.00
H246   H     0.85331   0.55630   0.28770   0.00000  Uiso   1.00
C247   C     0.68190   0.52051   0.25951   0.00000  Uiso   1.00
H248   H     0.64704   0.55409   0.28528   0.00000  Uiso   1.00
C249   C     0.66150   0.42331   0.18782   0.00000  Uiso   1.00
H250   H     0.61258   0.38894   0.16279   0.00000  Uiso   1.00
C251   C     0.78560   0.42104   0.18817   0.00000  Uiso   1.00
H252   H     0.81893   0.38548   0.16394   0.00000  Uiso   1.00
C253   C     0.48830   0.43833   0.35381   0.00000  Uiso   1.00
H254   H     0.50610   0.39729   0.33088   0.00000  Uiso   1.00
C255   C     0.50870   0.43894   0.42563   0.00000  Uiso   1.00
H256   H     0.53727   0.39829   0.45018   0.00000  Uiso   1.00
C257   C     0.48730   0.49901   0.46124   0.00000  Uiso   1.00
C258   C     0.43890   0.55630   0.42131   0.00000  Uiso   1.00
H259   H     0.42014   0.59794   0.44294   0.00000  Uiso   1.00
C260   C     0.41890   0.55142   0.34972   0.00000  Uiso   1.00
H261   H     0.38602   0.59035   0.32378   0.00000  Uiso   1.00
Cu262  Cu    0.07677   0.98256   0.28744   0.00000  Uiso   1.00
Cu263  Cu    0.76096   0.74913   0.53910   0.00000  Uiso   1.00
S264   S     0.93184   0.81899   0.68191   0.00000  Uiso   1.00
S265   S     0.29224   0.70174   0.57636   0.00000  Uiso   1.00
O266   O     0.09609   0.96078   0.38619   0.00000  Uiso   1.00
O267   O     0.11230   0.85087   0.34798   0.00000  Uiso   1.00
O268   O     0.29850   0.73680   0.94330   0.00000  Uiso   1.00
O269   O     0.12030   0.78920   0.93670   0.00000  Uiso   1.00
O270   O     0.91562   0.79473   0.60974   0.00000  Uiso   1.00
O271   O     0.91914   0.89509   0.68735   0.00000  Uiso   1.00
O272   O     0.85510   0.78089   0.72281   0.00000  Uiso   1.00
O273   O     0.28020   0.66631   0.50925   0.00000  Uiso   1.00
O274   O     0.23980   0.66369   0.62780   0.00000  Uiso   1.00
O275   O     0.41730   0.72352   0.60181   0.00000  Uiso   1.00
O276   O     0.66880   0.71239   0.62032   0.00000  Uiso   1.00
H277   H     0.59407   0.72122   0.62084   0.00000  Uiso   1.00
H278   H     0.71183   0.73603   0.65267   0.00000  Uiso   1.00
N279   N     0.26060   0.97927   0.28792   0.00000  Uiso   1.00
N280   N     0.89120   0.97300   0.27794   0.00000  Uiso   1.00
N281   N     0.05566   0.99369   0.18410   0.00000  Uiso   1.00
N282   N     0.66990   0.84142   0.53174   0.00000  Uiso   1.00
N283   N     0.84710   0.65604   0.53796   0.00000  Uiso   1.00
C284   C     0.11410   0.89433   0.39630   0.00000  Uiso   1.00
C285   C     0.13650   0.87093   0.47112   0.00000  Uiso   1.00
C286   C     0.18880   0.80537   0.48951   0.00000  Uiso   1.00
H287   H     0.20900   0.77561   0.45493   0.00000  Uiso   1.00
C288   C     0.21130   0.78363   0.55882   0.00000  Uiso   1.00
C289   C     0.17550   0.82611   0.61136   0.00000  Uiso   1.00
C290   C     0.12590   0.89207   0.59177   0.00000  Uiso   1.00
H291   H     0.10352   0.92170   0.62586   0.00000  Uiso   1.00
C292   C     0.10860   0.91501   0.52332   0.00000  Uiso   1.00
H293   H     0.07822   0.96026   0.51220   0.00000  Uiso   1.00
C294   C     0.18620   0.80460   0.68639   0.00000  Uiso   1.00
C295   C     0.08520   0.80038   0.72109   0.00000  Uiso   1.00
C296   C     0.10020   0.78520   0.79172   0.00000  Uiso   1.00
H297   H     0.03227   0.78328   0.81388   0.00000  Uiso   1.00
C298   C     0.21420   0.77283   0.82989   0.00000  Uiso   1.00
C299   C     0.31450   0.77517   0.79603   0.00000  Uiso   1.00
H300   H     0.39168   0.76580   0.82085   0.00000  Uiso   1.00
C301   C     0.30050   0.79122   0.72606   0.00000  Uiso   1.00
H302   H     0.36915   0.79325   0.70450   0.00000  Uiso   1.00
C303   C     0.20650   0.76700   0.90960   0.00000  Uiso   1.00
C304   C     0.79720   0.59280   0.53690   0.00000  Uiso   1.00
H305   H     0.71835   0.58971   0.54667   0.00000  Uiso   1.00
C306   C     0.85090   0.53350   0.52300   0.00000  Uiso   1.00
H307   H     0.80795   0.49112   0.52260   0.00000  Uiso   1.00
C308   C     0.96680   0.53178   0.50931   0.00000  Uiso   1.00
C309   C     0.02300   0.59710   0.50780   0.00000  Uiso   1.00
H310   H     0.10105   0.59991   0.49674   0.00000  Uiso   1.00
C311   C     0.96030   0.66170   0.52340   0.00000  Uiso   1.00
H312   H     0.99807   0.70572   0.52335   0.00000  Uiso   1.00
C313   C     0.55030   0.84144   0.52090   0.00000  Uiso   1.00
H314   H     0.51012   0.79824   0.52156   0.00000  Uiso   1.00
C315   C     0.48150   0.90176   0.50880   0.00000  Uiso   1.00
H316   H     0.39702   0.89857   0.50206   0.00000  Uiso   1.00
C317   C     0.53560   0.96664   0.50658   0.00000  Uiso   1.00
C318   C     0.66060   0.96608   0.51821   0.00000  Uiso   1.00
H319   H     0.70301   0.00853   0.51770   0.00000  Uiso   1.00
C320   C     0.72390   0.90344   0.53062   0.00000  Uiso   1.00
H321   H     0.80860   0.90499   0.53858   0.00000  Uiso   1.00
C322   C     0.31490   0.91794   0.27750   0.00000  Uiso   1.00
H323   H     0.26833   0.87673   0.27309   0.00000  Uiso   1.00
C324   C     0.43730   0.91306   0.27310   0.00000  Uiso   1.00
H325   H     0.47216   0.86922   0.26672   0.00000  Uiso   1.00
C326   C     0.50720   0.97362   0.27818   0.00000  Uiso   1.00
C327   C     0.45020   0.03687   0.28738   0.00000  Uiso   1.00
H328   H     0.49404   0.07907   0.29039   0.00000  Uiso   1.00
C329   C     0.32790   0.03746   0.29211   0.00000  Uiso   1.00
H330   H     0.29104   0.08069   0.29854   0.00000  Uiso   1.00
C331   C     0.63990   0.97164   0.27545   0.00000  Uiso   1.00
C332   C     0.69390   0.02191   0.23838   0.00000  Uiso   1.00
H333   H     0.64669   0.05630   0.21230   0.00000  Uiso   1.00
C334   C     0.81810   0.02051   0.24049   0.00000  Uiso   1.00
H335   H     0.85296   0.05409   0.21472   0.00000  Uiso   1.00
C336   C     0.83850   0.92331   0.31218   0.00000  Uiso   1.00
H337   H     0.88742   0.88894   0.33721   0.00000  Uiso   1.00
C338   C     0.71440   0.92104   0.31183   0.00000  Uiso   1.00
H339   H     0.68107   0.88548   0.33606   0.00000  Uiso   1.00
C340   C     0.01170   0.93833   0.14619   0.00000  Uiso   1.00
H341   H     0.99390   0.89729   0.16912   0.00000  Uiso   1.00
C342   C     0.99130   0.93894   0.07437   0.00000  Uiso   1.00
H343   H     0.96273   0.89829   0.04982   0.00000  Uiso   1.00
C344   C     0.01270   0.99901   0.03876   0.00000  Uiso   1.00
C345   C     0.06110   0.05630   0.07869   0.00000  Uiso   1.00
H346   H     0.07986   0.09794   0.05706   0.00000  Uiso   1.00
C347   C     0.08110   0.05142   0.15028   0.00000  Uiso   1.00
H348   H     0.11398   0.09035   0.17622   0.00000  Uiso   1.00
loop_
_geom_bond_atom_site_label_1
_geom_bond_atom_site_label_2
_geom_bond_distance
_geom_bond_site_symmetry_2
_ccdc_geom_bond_type
Cu1    O5      1.935   .     S
Cu1    O6      2.747   .     S
Cu1    N18     2.045   .     S
Cu1    N20     1.990   .     S
Cu1    O184    2.357   .     S
Cu1    N19     2.051   .     S
Cu2    O9      2.191   .     S
Cu2    O15     2.132   .     S
Cu2    N21     2.007   .     S
Cu2    N22     2.002   .     S
Cu2    O268    1.988   1_554 S
Cu2    O269    2.427   1_554 S
S3     O9      1.455   .     S
S3     O10     1.447   .     S
S3     O11     1.449   .     S
S3     C34     1.785   .     S
S4     O12     1.449   .     S
S4     O13     1.429   .     S
S4     O14     1.457   .     S
S4     C27     1.792   .     S
O5     C23     1.279   .     S
O6     C23     1.242   .     S
O7     C42     1.256   .     S
O7     Cu263   1.988   .     S
O8     C42     1.240   .     S
O8     Cu263   2.427   .     S
O10    Cu175   2.357   .     S
O15    H16     0.850   .     S
O15    H17     0.850   .     S
N18    C61     1.335   .     S
N18    C68     1.323   .     S
N19    C73     1.340   .     S
N19    C75     1.338   .     S
N20    C79     1.323   .     S
N20    C86     1.325   .     S
N21    C52     1.313   .     S
N21    C59     1.317   .     S
N22    C43     1.314   .     S
N22    C50     1.340   .     S
C23    C24     1.497   .     S
C24    C25     1.388   .     S
C24    C31     1.384   1_556 S
C25    H26     0.930   .     S
C25    C27     1.388   1_556 S
C27    C28     1.404   .     S
C27    C25     1.388   1_554 S
C28    C29     1.388   .     S
C28    C33     1.496   .     S
C29    H30     0.930   .     S
C29    C31     1.379   .     S
C31    C24     1.384   1_554 S
C31    H32     0.930   .     S
C33    C40     1.396   .     S
C33    C34     1.404   .     S
C34    C35     1.382   .     S
C35    H36     0.930   .     S
C35    C37     1.379   .     S
C37    C38     1.386   .     S
C37    C42     1.566   .     S
C38    H39     0.930   .     S
C38    C40     1.374   .     S
C40    H41     0.930   .     S
C43    H44     0.930   .     S
C43    C45     1.317   .     S
C45    H46     0.930   1_565 S
C45    C47     1.360   .     S
H46    C45     0.930   1_545 S
C47    C48     1.384   .     S
C47    C221    1.484   1_564 S
C48    H49     0.930   1_554 S
C48    C50     1.460   .     S
H49    C48     0.930   1_556 S
C50    H51     0.930   .     S
C52    H53     0.930   .     S
C52    C54     1.369   1_455 S
C54    C52     1.369   1_655 S
C54    H55     0.930   .     S
C54    C56     1.367   1_655 S
C56    C54     1.367   1_455 S
C56    C57     1.372   .     S
C56    C230    1.486   1_454 S
C57    H58     0.930   .     S
C57    C59     1.376   .     S
C59    H60     0.930   .     S
C61    H62     0.930   .     S
C61    C63     1.382   .     S
C63    H64     0.930   .     S
C63    C65     1.376   1_655 S
C65    C63     1.376   1_455 S
C65    C66     1.376   1_455 S
C65    C70     1.487   .     S
C66    C65     1.376   1_655 S
C66    H67     0.930   .     S
C66    C68     1.379   .     S
C68    H69     0.930   .     S
C70    C71     1.385   .     S
C70    C77     1.379   .     S
C71    H72     0.930   .     S
C71    C73     1.376   .     S
C73    H74     0.930   .     S
C75    H76     0.930   .     S
C75    C77     1.381   .     S
C77    H78     0.930   .     S
C79    H80     0.930   .     S
C79    C81     1.373   .     S
C81    H82     0.930   .     S
C81    C83     1.368   .     S
C83    C84     1.385   .     S
C83    C257    1.483   .     S
C84    H85     0.930   .     S
C84    C86     1.372   .     S
C86    H87     0.930   .     S
Cu88   O92     1.935   .     S
Cu88   O93     2.747   .     S
Cu88   N105    2.045   .     S
Cu88   N107    1.990   .     S
Cu88   O271    2.357   1_545 S
Cu88   N106    2.051   1_655 S
Cu89   O96     2.191   .     S
Cu89   O102    2.132   .     S
Cu89   N108    2.007   .     S
Cu89   N109    2.002   .     S
Cu89   O181    1.988   .     S
Cu89   O182    2.427   .     S
S90    O96     1.455   .     S
S90    O97     1.447   .     S
S90    O98     1.449   .     S
S90    C121    1.785   1_455 S
S91    O99     1.449   .     S
S91    O100    1.429   .     S
S91    O101    1.457   .     S
S91    C114    1.792   .     S
O92    C110    1.279   .     S
O93    C110    1.242   .     S
O94    C129    1.256   .     S
O94    Cu176   1.988   1_554 S
O95    C129    1.240   .     S
O95    Cu176   2.427   1_554 S
O97    Cu262   2.357   1_545 S
O102   H103    0.850   .     S
O102   H104    0.850   .     S
N105   C148    1.335   .     S
N105   C155    1.323   1_545 S
N106   C160    1.340   1_545 S
N106   C162    1.338   .     S
N106   Cu88    2.051   1_455 S
N107   C166    1.323   .     S
N107   C173    1.325   1_545 S
N108   C139    1.313   .     S
N108   C146    1.317   .     S
N109   C130    1.314   .     S
N109   C137    1.340   .     S
C110   C111    1.497   .     S
C111   C112    1.388   .     S
C111   C118    1.384   .     S
C112   H113    0.930   .     S
C112   C114    1.388   .     S
C114   C115    1.404   .     S
C115   C116    1.388   .     S
C115   C120    1.496   .     S
C116   H117    0.930   .     S
C116   C118    1.379   .     S
C118   H119    0.930   .     S
C120   C127    1.396   .     S
C120   C121    1.404   .     S
C121   S90     1.785   1_655 S
C121   C122    1.382   .     S
C122   H123    0.930   .     S
C122   C124    1.379   .     S
C124   C125    1.386   .     S
C124   C129    1.566   .     S
C125   H126    0.930   .     S
C125   C127    1.374   .     S
C127   H128    0.930   .     S
C130   H131    0.930   .     S
C130   C132    1.317   .     S
C132   H133    0.930   .     S
C132   C134    1.360   .     S
C134   C135    1.384   1_455 S
C134   C308    1.484   1_455 S
C135   C134    1.384   1_655 S
C135   H136    0.930   .     S
C135   C137    1.460   1_655 S
C137   H138    0.930   .     S
C137   C135    1.460   1_455 S
C139   H140    0.930   .     S
C139   C141    1.369   .     S
C141   H142    0.930   .     S
C141   C143    1.367   .     S
C143   C144    1.372   .     S
C143   C317    1.486   1_545 S
C144   H145    0.930   1_545 S
C144   C146    1.376   .     S
H145   C144    0.930   1_565 S
C146   H147    0.930   .     S
C148   H149    0.930   .     S
C148   C150    1.382   .     S
C150   H151    0.930   .     S
C150   C152    1.376   .     S
C152   C153    1.376   1_545 S
C152   C157    1.487   .     S
C153   C152    1.376   1_565 S
C153   H154    0.930   .     S
C153   C155    1.379   .     S
C155   N105    1.323   1_565 S
C155   H156    0.930   .     S
C157   C158    1.385   1_545 S
C157   C164    1.379   .     S
C158   C157    1.385   1_565 S
C158   H159    0.930   .     S
C158   C160    1.376   .     S
C160   N106    1.340   1_565 S
C160   H161    0.930   .     S
C162   H163    0.930   .     S
C162   C164    1.381   .     S
C164   H165    0.930   .     S
C166   H167    0.930   1_655 S
C166   C168    1.373   1_655 S
H167   C166    0.930   1_455 S
C168   C166    1.373   1_455 S
C168   H169    0.930   .     S
C168   C170    1.368   1_455 S
C170   C168    1.368   1_655 S
C170   C171    1.385   1_545 S
C170   C344    1.483   1_646 S
C171   C170    1.385   1_565 S
C171   H172    0.930   .     S
C171   C173    1.372   .     S
C173   N107    1.325   1_565 S
C173   H174    0.930   .     S
Cu175  O179    1.935   .     S
Cu175  O180    2.747   .     S
Cu175  N192    2.045   .     S
Cu175  N194    1.990   .     S
Cu175  N193    2.051   .     S
Cu176  O183    2.191   .     S
Cu176  O189    2.132   .     S
Cu176  N195    2.007   .     S
Cu176  N196    2.002   .     S
Cu176  O94     1.988   1_556 S
Cu176  O95     2.427   1_556 S
S177   O183    1.455   .     S
S177   O184    1.447   .     S
S177   O185    1.449   .     S
S177   C208    1.785   .     S
S178   O186    1.449   .     S
S178   O187    1.429   .     S
S178   O188    1.457   .     S
S178   C201    1.792   .     S
O179   C197    1.279   .     S
O180   C197    1.242   .     S
O181   C216    1.256   .     S
O182   C216    1.240   .     S
O189   H190    0.850   .     S
O189   H191    0.850   .     S
N192   C235    1.335   .     S
N192   C242    1.323   .     S
N193   C247    1.340   .     S
N193   C249    1.338   .     S
N194   C253    1.323   .     S
N194   C260    1.325   .     S
N195   C226    1.313   .     S
N195   C233    1.317   .     S
N196   C217    1.314   .     S
N196   C224    1.340   .     S
C197   C198    1.497   .     S
C198   C199    1.388   .     S
C198   C205    1.384   1_554 S
C199   H200    0.930   .     S
C199   C201    1.388   1_554 S
C201   C202    1.404   .     S
C201   C199    1.388   1_556 S
C202   C203    1.388   .     S
C202   C207    1.496   .     S
C203   H204    0.930   .     S
C203   C205    1.379   .     S
C205   C198    1.384   1_556 S
C205   H206    0.930   .     S
C207   C214    1.396   .     S
C207   C208    1.404   .     S
C208   C209    1.382   .     S
C209   H210    0.930   .     S
C209   C211    1.379   .     S
C211   C212    1.386   .     S
C211   C216    1.566   .     S
C212   H213    0.930   .     S
C212   C214    1.374   .     S
C214   H215    0.930   .     S
C217   H218    0.930   .     S
C217   C219    1.317   .     S
C219   H220    0.930   1_545 S
C219   C221    1.360   .     S
H220   C219    0.930   1_565 S
C221   C222    1.384   .     S
C221   C47     1.484   1_546 S
C222   H223    0.930   1_556 S
C222   C224    1.460   .     S
H223   C222    0.930   1_554 S
C224   H225    0.930   .     S
C226   H227    0.930   .     S
C226   C228    1.369   1_655 S
C228   C226    1.369   1_455 S
C228   H229    0.930   .     S
C228   C230    1.367   1_455 S
C230   C228    1.367   1_655 S
C230   C231    1.372   .     S
C230   C56     1.486   1_656 S
C231   H232    0.930   .     S
C231   C233    1.376   .     S
C233   H234    0.930   .     S
C235   H236    0.930   .     S
C235   C237    1.382   .     S
C237   H238    0.930   .     S
C237   C239    1.376   1_455 S
C239   C237    1.376   1_655 S
C239   C240    1.376   1_655 S
C239   C244    1.487   .     S
C240   C239    1.376   1_455 S
C240   H241    0.930   .     S
C240   C242    1.379   .     S
C242   H243    0.930   .     S
C244   C245    1.385   .     S
C244   C251    1.379   .     S
C245   H246    0.930   .     S
C245   C247    1.376   .     S
C247   H248    0.930   .     S
C249   H250    0.930   .     S
C249   C251    1.381   .     S
C251   H252    0.930   .     S
C253   H254    0.930   .     S
C253   C255    1.373   .     S
C255   H256    0.930   .     S
C255   C257    1.368   .     S
C257   C258    1.385   .     S
C258   H259    0.930   .     S
C258   C260    1.372   .     S
C260   H261    0.930   .     S
Cu262  O266    1.935   .     S
Cu262  O267    2.747   .     S
Cu262  N279    2.045   .     S
Cu262  N281    1.990   .     S
Cu262  O97     2.357   1_565 S
Cu262  N280    2.051   1_455 S
Cu263  O270    2.191   .     S
Cu263  O276    2.132   .     S
Cu263  N282    2.007   .     S
Cu263  N283    2.002   .     S
S264   O270    1.455   .     S
S264   O271    1.447   .     S
S264   O272    1.449   .     S
S264   C295    1.785   1_655 S
S265   O273    1.449   .     S
S265   O274    1.429   .     S
S265   O275    1.457   .     S
S265   C288    1.792   .     S
O266   C284    1.279   .     S
O267   C284    1.242   .     S
O268   C303    1.256   .     S
O268   Cu2     1.988   1_556 S
O269   C303    1.240   .     S
O269   Cu2     2.427   1_556 S
O271   Cu88    2.357   1_565 S
O276   H277    0.850   .     S
O276   H278    0.850   .     S
N279   C322    1.335   .     S
N279   C329    1.323   1_565 S
N280   C334    1.340   1_565 S
N280   C336    1.338   .     S
N280   Cu262   2.051   1_655 S
N281   C340    1.323   .     S
N281   C347    1.325   1_565 S
N282   C313    1.313   .     S
N282   C320    1.317   .     S
N283   C304    1.314   .     S
N283   C311    1.340   .     S
C284   C285    1.497   .     S
C285   C286    1.388   .     S
C285   C292    1.384   .     S
C286   H287    0.930   .     S
C286   C288    1.388   .     S
C288   C289    1.404   .     S
C289   C290    1.388   .     S
C289   C294    1.496   .     S
C290   H291    0.930   .     S
C290   C292    1.379   .     S
C292   H293    0.930   .     S
C294   C301    1.396   .     S
C294   C295    1.404   .     S
C295   S264    1.785   1_455 S
C295   C296    1.382   .     S
C296   H297    0.930   .     S
C296   C298    1.379   .     S
C298   C299    1.386   .     S
C298   C303    1.566   .     S
C299   H300    0.930   .     S
C299   C301    1.374   .     S
C301   H302    0.930   .     S
C304   H305    0.930   .     S
C304   C306    1.317   .     S
C306   H307    0.930   .     S
C306   C308    1.360   .     S
C308   C309    1.384   1_655 S
C308   C134    1.484   1_655 S
C309   C308    1.384   1_455 S
C309   H310    0.930   .     S
C309   C311    1.460   1_455 S
C311   H312    0.930   .     S
C311   C309    1.460   1_655 S
C313   H314    0.930   .     S
C313   C315    1.369   .     S
C315   H316    0.930   .     S
C315   C317    1.367   .     S
C317   C318    1.372   .     S
C317   C143    1.486   1_565 S
C318   H319    0.930   1_565 S
C318   C320    1.376   .     S
H319   C318    0.930   1_545 S
C320   H321    0.930   .     S
C322   H323    0.930   .     S
C322   C324    1.382   .     S
C324   H325    0.930   .     S
C324   C326    1.376   .     S
C326   C327    1.376   1_565 S
C326   C331    1.487   .     S
C327   C326    1.376   1_545 S
C327   H328    0.930   .     S
C327   C329    1.379   .     S
C329   N279    1.323   1_545 S
C329   H330    0.930   .     S
C331   C332    1.385   1_565 S
C331   C338    1.379   .     S
C332   C331    1.385   1_545 S
C332   H333    0.930   .     S
C332   C334    1.376   .     S
C334   N280    1.340   1_545 S
C334   H335    0.930   .     S
C336   H337    0.930   .     S
C336   C338    1.381   .     S
C338   H339    0.930   .     S
C340   H341    0.930   1_455 S
C340   C342    1.373   1_455 S
H341   C340    0.930   1_655 S
C342   C340    1.373   1_655 S
C342   H343    0.930   .     S
C342   C344    1.368   1_655 S
C344   C342    1.368   1_455 S
C344   C345    1.385   1_565 S
C344   C170    1.483   1_464 S
C345   C344    1.385   1_545 S
C345   H346    0.930   .     S
C345   C347    1.372   .     S
C347   N281    1.325   1_545 S
C347   H348    0.930   .     S
