data_MUNLIT_FSR
_audit_creation_date              2024-06-11
_audit_creation_method            'Materials Studio'
_symmetry_space_group_name_H-M    'P1'
_symmetry_Int_Tables_number       1
_symmetry_cell_setting            triclinic
loop_
_symmetry_equiv_pos_as_xyz
  x,y,z
_cell_length_a                    10.6570
_cell_length_b                    10.3980
_cell_length_c                    21.3010
_cell_angle_alpha                 90.0000
_cell_angle_beta                  119.8400
_cell_angle_gamma                 90.0000
loop_
_atom_site_label
_atom_site_type_symbol
_atom_site_fract_x
_atom_site_fract_y
_atom_site_fract_z
_atom_site_U_iso_or_equiv
_atom_site_adp_type
_atom_site_occupancy
Mo1    Mo    0.52345   0.33480   0.98049   0.00000  Uiso   1.00
Mo2    Mo    0.80597   0.51003   0.06743   0.00000  Uiso   1.00
Mo3    Mo    0.31453   0.27562   0.06142   0.00000  Uiso   1.00
Mo4    Mo    0.40070   0.53635   0.85096   0.00000  Uiso   1.00
O5     O     0.44330   0.21620   0.00730   0.00000  Uiso   1.00
O6     O     0.48170   0.44430   0.81510   0.00000  Uiso   1.00
O7     O     0.50750   0.30270   0.13860   0.00000  Uiso   1.00
O8     O     0.58050   0.52790   0.96630   0.00000  Uiso   1.00
O9     O     0.60490   0.25340   0.94210   0.00000  Uiso   1.00
O10    O     0.34800   0.39510   0.89650   0.00000  Uiso   1.00
O11    O     0.27960   0.11880   0.06830   0.00000  Uiso   1.00
O12    O     0.68510   0.37170   0.07540   0.00000  Uiso   1.00
O13    O     0.23290   0.57040   0.77870   0.00000  Uiso   1.00
O14    O     0.94530   0.51460   0.15510   0.00000  Uiso   1.00
O15    O     0.87330   0.42690   0.02200   0.00000  Uiso   1.00
N16    N     0.06770   0.82200   0.84240   0.00000  Uiso   1.00
N17    N     0.06800   0.92570   0.93360   0.00000  Uiso   1.00
N18    N     0.18280   0.90240   0.87460   0.00000  Uiso   1.00
C19    C     0.25770   0.00890   0.79450   0.00000  Uiso   1.00
C20    C     0.17500   0.28210   0.62700   0.00000  Uiso   1.00
H21    H     0.22281   0.25504   0.60059   0.00000  Uiso   1.00
H22    H     0.07164   0.28341   0.59341   0.00000  Uiso   1.00
C23    C     0.20660   0.18860   0.68520   0.00000  Uiso   1.00
C24    C     0.30710   0.98880   0.74620   0.00000  Uiso   1.00
H25    H     0.35711   0.91355   0.74932   0.00000  Uiso   1.00
C26    C     0.00070   0.83940   0.87870   0.00000  Uiso   1.00
H27    H     0.91550   0.79720   0.86823   0.00000  Uiso   1.00
C28    C     0.18150   0.96320   0.92860   0.00000  Uiso   1.00
H29    H     0.24977   0.02328   0.95852   0.00000  Uiso   1.00
C30    C     0.18680   0.12310   0.78880   0.00000  Uiso   1.00
H31    H     0.15666   0.14115   0.82202   0.00000  Uiso   1.00
C32    C     0.28350   0.07810   0.69340   0.00000  Uiso   1.00
H33    H     0.32061   0.06290   0.66271   0.00000  Uiso   1.00
C34    C     0.29250   0.91260   0.85230   0.00000  Uiso   1.00
H35    H     0.30374   0.82920   0.83531   0.00000  Uiso   1.00
H36    H     0.38435   0.93517   0.89418   0.00000  Uiso   1.00
C37    C     0.15960   0.21060   0.73530   0.00000  Uiso   1.00
H38    H     0.10930   0.28567   0.73212   0.00000  Uiso   1.00
O39    O     0.81260   0.68170   0.03730   0.00000  Uiso   1.00
O40    O     0.22620   0.35590   0.09780   0.00000  Uiso   1.00
O41    O     0.22310   0.41130   0.65530   0.00000  Uiso   1.00
H42    H     0.21200   0.49400   0.63000   0.00000  Uiso   1.00
Mo43   Mo    0.47655   0.33480   0.51951   0.00000  Uiso   1.00
Mo44   Mo    0.19403   0.51003   0.43257   0.00000  Uiso   1.00
Mo45   Mo    0.68547   0.27562   0.43858   0.00000  Uiso   1.00
Mo46   Mo    0.59930   0.53635   0.64904   0.00000  Uiso   1.00
O47    O     0.55670   0.21620   0.49270   0.00000  Uiso   1.00
O48    O     0.51830   0.44430   0.68490   0.00000  Uiso   1.00
O49    O     0.49250   0.30270   0.36140   0.00000  Uiso   1.00
O50    O     0.41950   0.52790   0.53370   0.00000  Uiso   1.00
O51    O     0.39510   0.25340   0.55790   0.00000  Uiso   1.00
O52    O     0.65200   0.39510   0.60350   0.00000  Uiso   1.00
O53    O     0.72040   0.11880   0.43170   0.00000  Uiso   1.00
O54    O     0.31490   0.37170   0.42460   0.00000  Uiso   1.00
O55    O     0.76710   0.57040   0.72130   0.00000  Uiso   1.00
O56    O     0.05470   0.51460   0.34490   0.00000  Uiso   1.00
O57    O     0.12670   0.42690   0.47800   0.00000  Uiso   1.00
N58    N     0.93230   0.82200   0.65760   0.00000  Uiso   1.00
N59    N     0.93200   0.92570   0.56640   0.00000  Uiso   1.00
N60    N     0.81720   0.90240   0.62540   0.00000  Uiso   1.00
C61    C     0.74230   0.00890   0.70550   0.00000  Uiso   1.00
C62    C     0.82500   0.28210   0.87300   0.00000  Uiso   1.00
H63    H     0.77719   0.25504   0.89941   0.00000  Uiso   1.00
H64    H     0.92836   0.28341   0.90659   0.00000  Uiso   1.00
C65    C     0.79340   0.18860   0.81480   0.00000  Uiso   1.00
C66    C     0.69290   0.98880   0.75380   0.00000  Uiso   1.00
H67    H     0.64289   0.91355   0.75068   0.00000  Uiso   1.00
C68    C     0.99930   0.83940   0.62130   0.00000  Uiso   1.00
H69    H     0.08450   0.79720   0.63177   0.00000  Uiso   1.00
C70    C     0.81850   0.96320   0.57140   0.00000  Uiso   1.00
H71    H     0.75023   0.02328   0.54148   0.00000  Uiso   1.00
C72    C     0.81320   0.12310   0.71120   0.00000  Uiso   1.00
H73    H     0.84334   0.14115   0.67798   0.00000  Uiso   1.00
C74    C     0.71650   0.07810   0.80660   0.00000  Uiso   1.00
H75    H     0.67939   0.06290   0.83729   0.00000  Uiso   1.00
C76    C     0.70750   0.91260   0.64770   0.00000  Uiso   1.00
H77    H     0.69626   0.82920   0.66469   0.00000  Uiso   1.00
H78    H     0.61564   0.93517   0.60582   0.00000  Uiso   1.00
C79    C     0.84040   0.21060   0.76470   0.00000  Uiso   1.00
H80    H     0.89070   0.28567   0.76788   0.00000  Uiso   1.00
O81    O     0.18740   0.68170   0.46270   0.00000  Uiso   1.00
O82    O     0.77380   0.35590   0.40220   0.00000  Uiso   1.00
O83    O     0.77690   0.41130   0.84470   0.00000  Uiso   1.00
H84    H     0.78800   0.49400   0.87000   0.00000  Uiso   1.00
Mo85   Mo    0.47655   0.66520   0.01951   0.00000  Uiso   1.00
Mo86   Mo    0.19403   0.48997   0.93257   0.00000  Uiso   1.00
Mo87   Mo    0.68547   0.72438   0.93858   0.00000  Uiso   1.00
Mo88   Mo    0.59930   0.46365   0.14904   0.00000  Uiso   1.00
O89    O     0.55670   0.78380   0.99270   0.00000  Uiso   1.00
O90    O     0.51830   0.55570   0.18490   0.00000  Uiso   1.00
O91    O     0.49250   0.69730   0.86140   0.00000  Uiso   1.00
O92    O     0.41950   0.47210   0.03370   0.00000  Uiso   1.00
O93    O     0.39510   0.74660   0.05790   0.00000  Uiso   1.00
O94    O     0.65200   0.60490   0.10350   0.00000  Uiso   1.00
O95    O     0.72040   0.88120   0.93170   0.00000  Uiso   1.00
O96    O     0.31490   0.62830   0.92460   0.00000  Uiso   1.00
O97    O     0.76710   0.42960   0.22130   0.00000  Uiso   1.00
O98    O     0.05470   0.48540   0.84490   0.00000  Uiso   1.00
O99    O     0.12670   0.57310   0.97800   0.00000  Uiso   1.00
N100   N     0.93230   0.17800   0.15760   0.00000  Uiso   1.00
N101   N     0.93200   0.07430   0.06640   0.00000  Uiso   1.00
N102   N     0.81720   0.09760   0.12540   0.00000  Uiso   1.00
C103   C     0.74230   0.99110   0.20550   0.00000  Uiso   1.00
C104   C     0.82500   0.71790   0.37300   0.00000  Uiso   1.00
H105   H     0.77719   0.74496   0.39941   0.00000  Uiso   1.00
H106   H     0.92836   0.71659   0.40659   0.00000  Uiso   1.00
C107   C     0.79340   0.81140   0.31480   0.00000  Uiso   1.00
C108   C     0.69290   0.01120   0.25380   0.00000  Uiso   1.00
H109   H     0.64289   0.08645   0.25068   0.00000  Uiso   1.00
C110   C     0.99930   0.16060   0.12130   0.00000  Uiso   1.00
H111   H     0.08450   0.20280   0.13177   0.00000  Uiso   1.00
C112   C     0.81850   0.03680   0.07140   0.00000  Uiso   1.00
H113   H     0.75023   0.97672   0.04148   0.00000  Uiso   1.00
C114   C     0.81320   0.87690   0.21120   0.00000  Uiso   1.00
H115   H     0.84334   0.85885   0.17798   0.00000  Uiso   1.00
C116   C     0.71650   0.92190   0.30660   0.00000  Uiso   1.00
H117   H     0.67939   0.93710   0.33729   0.00000  Uiso   1.00
C118   C     0.70750   0.08740   0.14770   0.00000  Uiso   1.00
H119   H     0.69626   0.17080   0.16469   0.00000  Uiso   1.00
H120   H     0.61564   0.06483   0.10582   0.00000  Uiso   1.00
C121   C     0.84040   0.78940   0.26470   0.00000  Uiso   1.00
H122   H     0.89070   0.71433   0.26788   0.00000  Uiso   1.00
O123   O     0.18740   0.31830   0.96270   0.00000  Uiso   1.00
O124   O     0.77380   0.64410   0.90220   0.00000  Uiso   1.00
O125   O     0.77690   0.58870   0.34470   0.00000  Uiso   1.00
H126   H     0.78800   0.50600   0.37000   0.00000  Uiso   1.00
Mo127  Mo    0.52345   0.66520   0.48049   0.00000  Uiso   1.00
Mo128  Mo    0.80597   0.48997   0.56743   0.00000  Uiso   1.00
Mo129  Mo    0.31453   0.72438   0.56142   0.00000  Uiso   1.00
Mo130  Mo    0.40070   0.46365   0.35096   0.00000  Uiso   1.00
O131   O     0.44330   0.78380   0.50730   0.00000  Uiso   1.00
O132   O     0.48170   0.55570   0.31510   0.00000  Uiso   1.00
O133   O     0.50750   0.69730   0.63860   0.00000  Uiso   1.00
O134   O     0.58050   0.47210   0.46630   0.00000  Uiso   1.00
O135   O     0.60490   0.74660   0.44210   0.00000  Uiso   1.00
O136   O     0.34800   0.60490   0.39650   0.00000  Uiso   1.00
O137   O     0.27960   0.88120   0.56830   0.00000  Uiso   1.00
O138   O     0.68510   0.62830   0.57540   0.00000  Uiso   1.00
O139   O     0.23290   0.42960   0.27870   0.00000  Uiso   1.00
O140   O     0.94530   0.48540   0.65510   0.00000  Uiso   1.00
O141   O     0.87330   0.57310   0.52200   0.00000  Uiso   1.00
N142   N     0.06770   0.17800   0.34240   0.00000  Uiso   1.00
N143   N     0.06800   0.07430   0.43360   0.00000  Uiso   1.00
N144   N     0.18280   0.09760   0.37460   0.00000  Uiso   1.00
C145   C     0.25770   0.99110   0.29450   0.00000  Uiso   1.00
C146   C     0.17500   0.71790   0.12700   0.00000  Uiso   1.00
H147   H     0.22281   0.74496   0.10059   0.00000  Uiso   1.00
H148   H     0.07164   0.71659   0.09341   0.00000  Uiso   1.00
C149   C     0.20660   0.81140   0.18520   0.00000  Uiso   1.00
C150   C     0.30710   0.01120   0.24620   0.00000  Uiso   1.00
H151   H     0.35711   0.08645   0.24932   0.00000  Uiso   1.00
C152   C     0.00070   0.16060   0.37870   0.00000  Uiso   1.00
H153   H     0.91550   0.20280   0.36823   0.00000  Uiso   1.00
C154   C     0.18150   0.03680   0.42860   0.00000  Uiso   1.00
H155   H     0.24977   0.97672   0.45852   0.00000  Uiso   1.00
C156   C     0.18680   0.87690   0.28880   0.00000  Uiso   1.00
H157   H     0.15666   0.85885   0.32202   0.00000  Uiso   1.00
C158   C     0.28350   0.92190   0.19340   0.00000  Uiso   1.00
H159   H     0.32061   0.93710   0.16271   0.00000  Uiso   1.00
C160   C     0.29250   0.08740   0.35230   0.00000  Uiso   1.00
H161   H     0.30374   0.17080   0.33531   0.00000  Uiso   1.00
H162   H     0.38435   0.06483   0.39418   0.00000  Uiso   1.00
C163   C     0.15960   0.78940   0.23530   0.00000  Uiso   1.00
H164   H     0.10930   0.71433   0.23212   0.00000  Uiso   1.00
O165   O     0.81260   0.31830   0.53730   0.00000  Uiso   1.00
O166   O     0.22620   0.64410   0.59780   0.00000  Uiso   1.00
O167   O     0.22310   0.58870   0.15530   0.00000  Uiso   1.00
H168   H     0.21200   0.50600   0.13000   0.00000  Uiso   1.00
Ag169  Ag    0.00000   0.66588   0.75000   0.00000  Uiso   1.00
Ag170  Ag    0.00000   0.33412   0.25000   0.00000  Uiso   1.00
Ag171  Ag    0.00000   0.00000   0.00000   0.00000  Uiso   1.00
Ag172  Ag    0.00000   0.00000   0.50000   0.00000  Uiso   1.00
loop_
_geom_bond_atom_site_label_1
_geom_bond_atom_site_label_2
_geom_bond_distance
_geom_bond_site_symmetry_2
_ccdc_geom_bond_type
Mo1    Mo4     3.182   .     S
Mo1    O5      1.750   1_556 S
Mo1    O8      2.162   .     S
Mo1    O9      1.687   .     S
Mo1    O10     1.939   .     S
Mo1    O12     1.933   1_556 S
Mo1    O92     2.408   1_556 S
Mo2    O8      2.302   1_554 S
Mo2    O14     1.713   .     S
Mo2    O15     1.700   .     S
Mo2    O39     1.910   .     S
Mo2    O94     2.347   .     S
Mo2    O12     1.994   .     S
Mo3    O5      2.273   .     S
Mo3    O7      1.910   .     S
Mo3    O11     1.695   .     S
Mo3    O40     1.706   .     S
Mo3    O123    1.902   1_554 S
Mo3    O92     2.536   .     S
Mo4    O6      1.703   .     S
Mo4    O13     1.718   .     S
Mo4    O91     1.895   .     S
Mo4    O96     2.374   .     S
Mo4    O8      2.243   .     S
Mo4    O10     1.989   .     S
O5     Mo1     1.750   1_554 S
O7     Mo88    1.895   .     S
O8     Mo2     2.302   1_556 S
O8     Mo85    2.408   1_556 S
O8     Mo87    2.536   .     S
O10    Mo86    2.347   .     S
O12    Mo1     1.933   1_554 S
O12    Mo88    2.374   .     S
O13    Ag169   2.451   .     S
O14    Ag170   2.603   1_655 S
N16    Ag169   2.370   .     S
N16    N18     1.355   .     S
N16    C26     1.300   .     S
N17    Ag171   2.035   1_566 S
N17    C26     1.361   .     S
N17    C28     1.325   .     S
N18    C34     1.468   .     S
N18    C28     1.319   .     S
C19    C24     1.385   1_545 S
C19    C30     1.380   .     S
C19    C34     1.484   1_545 S
C20    H21     0.970   .     S
C20    H22     0.970   .     S
C20    C23     1.476   .     S
C20    O41     1.457   .     S
C23    C32     1.371   .     S
C23    C37     1.405   .     S
C24    C19     1.385   1_565 S
C24    H25     0.930   .     S
C24    C32     1.382   1_565 S
C26    H27     0.930   1_455 S
H27    C26     0.930   1_655 S
C28    H29     0.930   1_565 S
H29    C28     0.930   1_545 S
C30    H31     0.930   .     S
C30    C37     1.372   .     S
C32    H33     0.931   .     S
C32    C24     1.382   1_545 S
C34    H35     0.970   .     S
C34    H36     0.970   .     S
C34    C19     1.484   1_565 S
C37    H38     0.930   .     S
O39    Mo87    1.902   1_554 S
O41    H42     0.990   .     S
Mo43   Mo46    3.182   .     S
Mo43   O47     1.750   .     S
Mo43   O50     2.162   .     S
Mo43   O51     1.687   .     S
Mo43   O52     1.939   .     S
Mo43   O54     1.933   .     S
Mo43   O134    2.408   .     S
Mo44   O50     2.302   .     S
Mo44   O56     1.713   .     S
Mo44   O57     1.700   .     S
Mo44   O81     1.910   .     S
Mo44   O136    2.347   .     S
Mo44   O54     1.994   .     S
Mo45   O47     2.273   .     S
Mo45   O49     1.910   .     S
Mo45   O53     1.695   .     S
Mo45   O82     1.706   .     S
Mo45   O165    1.902   .     S
Mo45   O134    2.536   .     S
Mo46   O48     1.703   .     S
Mo46   O55     1.718   .     S
Mo46   O133    1.895   .     S
Mo46   O138    2.374   .     S
Mo46   O50     2.243   .     S
Mo46   O52     1.989   .     S
O49    Mo130   1.895   .     S
O50    Mo127   2.408   .     S
O50    Mo129   2.536   .     S
O52    Mo128   2.347   .     S
O54    Mo130   2.374   .     S
O55    Ag169   2.451   1_655 S
O56    Ag170   2.603   .     S
N58    Ag169   2.370   1_655 S
N58    N60     1.355   .     S
N58    C68     1.300   .     S
N59    Ag172   2.035   1_665 S
N59    C68     1.361   .     S
N59    C70     1.325   .     S
N60    C76     1.468   .     S
N60    C70     1.319   .     S
C61    C66     1.385   1_545 S
C61    C72     1.380   .     S
C61    C76     1.484   1_545 S
C62    H63     0.970   .     S
C62    H64     0.970   .     S
C62    C65     1.476   .     S
C62    O83     1.457   .     S
C65    C74     1.371   .     S
C65    C79     1.405   .     S
C66    C61     1.385   1_565 S
C66    H67     0.930   .     S
C66    C74     1.382   1_565 S
C68    H69     0.930   1_655 S
H69    C68     0.930   1_455 S
C70    H71     0.930   1_565 S
H71    C70     0.930   1_545 S
C72    H73     0.930   .     S
C72    C79     1.372   .     S
C74    H75     0.931   .     S
C74    C66     1.382   1_545 S
C76    H77     0.970   .     S
C76    H78     0.970   .     S
C76    C61     1.484   1_565 S
C79    H80     0.930   .     S
O81    Mo129   1.902   .     S
O83    H84     0.990   .     S
Mo85   Mo88    3.182   .     S
Mo85   O89     1.750   1_554 S
Mo85   O92     2.162   .     S
Mo85   O93     1.687   .     S
Mo85   O94     1.939   .     S
Mo85   O96     1.933   1_554 S
Mo85   O8      2.408   1_554 S
Mo86   O92     2.302   1_556 S
Mo86   O98     1.713   .     S
Mo86   O99     1.700   .     S
Mo86   O123    1.910   .     S
Mo86   O96     1.994   .     S
Mo87   O89     2.273   .     S
Mo87   O91     1.910   .     S
Mo87   O95     1.695   .     S
Mo87   O124    1.706   .     S
Mo87   O39     1.902   1_556 S
Mo88   O90     1.703   .     S
Mo88   O97     1.718   .     S
Mo88   O92     2.243   .     S
Mo88   O94     1.989   .     S
O89    Mo85    1.750   1_556 S
O92    Mo86    2.302   1_554 S
O92    Mo1     2.408   1_554 S
O96    Mo85    1.933   1_556 S
O97    Ag170   2.451   1_655 S
O98    Ag169   2.603   .     S
N100   Ag170   2.370   1_655 S
N100   N102    1.355   .     S
N100   C110    1.300   .     S
N101   Ag171   2.035   1_655 S
N101   C110    1.361   .     S
N101   C112    1.325   .     S
N102   C118    1.468   .     S
N102   C112    1.319   .     S
C103   C108    1.385   1_565 S
C103   C114    1.380   .     S
C103   C118    1.484   1_565 S
C104   H105    0.970   .     S
C104   H106    0.970   .     S
C104   C107    1.476   .     S
C104   O125    1.457   .     S
C107   C116    1.371   .     S
C107   C121    1.405   .     S
C108   C103    1.385   1_545 S
C108   H109    0.930   .     S
C108   C116    1.382   1_545 S
C110   H111    0.930   1_655 S
H111   C110    0.930   1_455 S
C112   H113    0.930   1_545 S
H113   C112    0.930   1_565 S
C114   H115    0.930   .     S
C114   C121    1.372   .     S
C116   H117    0.931   .     S
C116   C108    1.382   1_565 S
C118   H119    0.970   .     S
C118   H120    0.970   .     S
C118   C103    1.484   1_545 S
C121   H122    0.930   .     S
O123   Mo3     1.902   1_556 S
O125   H126    0.990   .     S
Mo127  Mo130   3.182   .     S
Mo127  O131    1.750   .     S
Mo127  O134    2.162   .     S
Mo127  O135    1.687   .     S
Mo127  O136    1.939   .     S
Mo127  O138    1.933   .     S
Mo128  O134    2.302   .     S
Mo128  O140    1.713   .     S
Mo128  O141    1.700   .     S
Mo128  O165    1.910   .     S
Mo128  O138    1.994   .     S
Mo129  O131    2.273   .     S
Mo129  O133    1.910   .     S
Mo129  O137    1.695   .     S
Mo129  O166    1.706   .     S
Mo130  O132    1.703   .     S
Mo130  O139    1.718   .     S
Mo130  O134    2.243   .     S
Mo130  O136    1.989   .     S
O139   Ag170   2.451   .     S
O140   Ag169   2.603   1_655 S
N142   Ag170   2.370   .     S
N142   N144    1.355   .     S
N142   C152    1.300   .     S
N143   Ag172   2.035   .     S
N143   C152    1.361   .     S
N143   C154    1.325   .     S
N144   C160    1.468   .     S
N144   C154    1.319   .     S
C145   C150    1.385   1_565 S
C145   C156    1.380   .     S
C145   C160    1.484   1_565 S
C146   H147    0.970   .     S
C146   H148    0.970   .     S
C146   C149    1.476   .     S
C146   O167    1.457   .     S
C149   C158    1.371   .     S
C149   C163    1.405   .     S
C150   C145    1.385   1_545 S
C150   H151    0.930   .     S
C150   C158    1.382   1_545 S
C152   H153    0.930   1_455 S
H153   C152    0.930   1_655 S
C154   H155    0.930   1_545 S
H155   C154    0.930   1_565 S
C156   H157    0.930   .     S
C156   C163    1.372   .     S
C158   H159    0.931   .     S
C158   C150    1.382   1_565 S
C160   H161    0.970   .     S
C160   H162    0.970   .     S
C160   C145    1.484   1_545 S
C163   H164    0.930   .     S
O167   H168    0.990   .     S
Ag169  O55     2.451   1_455 S
Ag169  N58     2.370   1_455 S
Ag169  O140    2.603   1_455 S
Ag170  O97     2.451   1_455 S
Ag170  N100    2.370   1_455 S
Ag170  O14     2.603   1_455 S
Ag171  N17     2.035   1_544 S
Ag171  N101    2.035   1_455 S
Ag172  N59     2.035   1_445 S
