data_MUWLIC_FSR
_audit_creation_date              2024-06-11
_audit_creation_method            'Materials Studio'
_symmetry_space_group_name_H-M    'P1'
_symmetry_Int_Tables_number       1
_symmetry_cell_setting            triclinic
loop_
_symmetry_equiv_pos_as_xyz
  x,y,z
_cell_length_a                    14.1712
_cell_length_b                    14.1712
_cell_length_c                    15.9715
_cell_angle_alpha                 90.0000
_cell_angle_beta                  90.0000
_cell_angle_gamma                 120.0000
loop_
_atom_site_label
_atom_site_type_symbol
_atom_site_fract_x
_atom_site_fract_y
_atom_site_fract_z
_atom_site_U_iso_or_equiv
_atom_site_adp_type
_atom_site_occupancy
O1     O     0.41720   0.61270   0.35280   0.00000  Uiso   1.00
O2     O     0.56310   0.61850   0.41180   0.00000  Uiso   1.00
C3     C     0.51840   0.64990   0.36140   0.00000  Uiso   1.00
C4     C     0.59270   0.74450   0.30740   0.00000  Uiso   1.00
H5     H     0.63527   0.80821   0.34208   0.00000  Uiso   1.00
H6     H     0.64263   0.72810   0.27787   0.00000  Uiso   1.00
O7     O     0.38730   0.80450   0.35280   0.00000  Uiso   1.00
O8     O     0.38150   0.94460   0.41180   0.00000  Uiso   1.00
C9     C     0.35010   0.86850   0.36140   0.00000  Uiso   1.00
C10    C     0.25550   0.84820   0.30740   0.00000  Uiso   1.00
H11    H     0.19179   0.82707   0.34208   0.00000  Uiso   1.00
H12    H     0.27190   0.91453   0.27787   0.00000  Uiso   1.00
O13    O     0.19550   0.58280   0.35280   0.00000  Uiso   1.00
O14    O     0.05540   0.43690   0.41180   0.00000  Uiso   1.00
C15    C     0.13150   0.48160   0.36140   0.00000  Uiso   1.00
C16    C     0.15180   0.40730   0.30740   0.00000  Uiso   1.00
H17    H     0.17293   0.36473   0.34208   0.00000  Uiso   1.00
H18    H     0.08547   0.35737   0.27787   0.00000  Uiso   1.00
O19    O     0.58280   0.38730   0.35280   0.00000  Uiso   1.00
O20    O     0.43690   0.38150   0.41180   0.00000  Uiso   1.00
C21    C     0.48160   0.35010   0.36140   0.00000  Uiso   1.00
C22    C     0.40730   0.25550   0.30740   0.00000  Uiso   1.00
H23    H     0.36473   0.19179   0.34208   0.00000  Uiso   1.00
H24    H     0.35737   0.27190   0.27787   0.00000  Uiso   1.00
O25    O     0.61270   0.19550   0.35280   0.00000  Uiso   1.00
O26    O     0.61850   0.05540   0.41180   0.00000  Uiso   1.00
C27    C     0.64990   0.13150   0.36140   0.00000  Uiso   1.00
C28    C     0.74450   0.15180   0.30740   0.00000  Uiso   1.00
H29    H     0.80821   0.17293   0.34208   0.00000  Uiso   1.00
H30    H     0.72810   0.08547   0.27787   0.00000  Uiso   1.00
O31    O     0.80450   0.41720   0.35280   0.00000  Uiso   1.00
O32    O     0.94460   0.56310   0.41180   0.00000  Uiso   1.00
C33    C     0.86850   0.51840   0.36140   0.00000  Uiso   1.00
C34    C     0.84820   0.59270   0.30740   0.00000  Uiso   1.00
H35    H     0.82707   0.63527   0.34208   0.00000  Uiso   1.00
H36    H     0.91453   0.64263   0.27787   0.00000  Uiso   1.00
O37    O     0.61270   0.41720   0.14720   0.00000  Uiso   1.00
O38    O     0.61850   0.56310   0.08820   0.00000  Uiso   1.00
C39    C     0.64990   0.51840   0.13860   0.00000  Uiso   1.00
C40    C     0.74450   0.59270   0.19260   0.00000  Uiso   1.00
H41    H     0.80821   0.63527   0.15792   0.00000  Uiso   1.00
H42    H     0.72810   0.64263   0.22213   0.00000  Uiso   1.00
O43    O     0.80450   0.38730   0.14720   0.00000  Uiso   1.00
O44    O     0.94460   0.38150   0.08820   0.00000  Uiso   1.00
C45    C     0.86850   0.35010   0.13860   0.00000  Uiso   1.00
C46    C     0.84820   0.25550   0.19260   0.00000  Uiso   1.00
H47    H     0.82707   0.19179   0.15792   0.00000  Uiso   1.00
H48    H     0.91453   0.27190   0.22213   0.00000  Uiso   1.00
O49    O     0.58280   0.19550   0.14720   0.00000  Uiso   1.00
O50    O     0.43690   0.05540   0.08820   0.00000  Uiso   1.00
C51    C     0.48160   0.13150   0.13860   0.00000  Uiso   1.00
C52    C     0.40730   0.15180   0.19260   0.00000  Uiso   1.00
H53    H     0.36473   0.17293   0.15792   0.00000  Uiso   1.00
H54    H     0.35737   0.08547   0.22213   0.00000  Uiso   1.00
O55    O     0.38730   0.58280   0.14720   0.00000  Uiso   1.00
O56    O     0.38150   0.43690   0.08820   0.00000  Uiso   1.00
C57    C     0.35010   0.48160   0.13860   0.00000  Uiso   1.00
C58    C     0.25550   0.40730   0.19260   0.00000  Uiso   1.00
H59    H     0.19179   0.36473   0.15792   0.00000  Uiso   1.00
H60    H     0.27190   0.35737   0.22213   0.00000  Uiso   1.00
O61    O     0.19550   0.61270   0.14720   0.00000  Uiso   1.00
O62    O     0.05540   0.61850   0.08820   0.00000  Uiso   1.00
C63    C     0.13150   0.64990   0.13860   0.00000  Uiso   1.00
C64    C     0.15180   0.74450   0.19260   0.00000  Uiso   1.00
H65    H     0.17293   0.80821   0.15792   0.00000  Uiso   1.00
H66    H     0.08547   0.72810   0.22213   0.00000  Uiso   1.00
O67    O     0.41720   0.80450   0.14720   0.00000  Uiso   1.00
O68    O     0.56310   0.94460   0.08820   0.00000  Uiso   1.00
C69    C     0.51840   0.86850   0.13860   0.00000  Uiso   1.00
C70    C     0.59270   0.84820   0.19260   0.00000  Uiso   1.00
H71    H     0.63527   0.82707   0.15792   0.00000  Uiso   1.00
H72    H     0.64263   0.91453   0.22213   0.00000  Uiso   1.00
O73    O     0.58280   0.38730   0.64720   0.00000  Uiso   1.00
O74    O     0.43690   0.38150   0.58820   0.00000  Uiso   1.00
C75    C     0.48160   0.35010   0.63860   0.00000  Uiso   1.00
C76    C     0.40730   0.25550   0.69260   0.00000  Uiso   1.00
H77    H     0.36473   0.19179   0.65792   0.00000  Uiso   1.00
H78    H     0.35737   0.27190   0.72213   0.00000  Uiso   1.00
O79    O     0.61270   0.19550   0.64720   0.00000  Uiso   1.00
O80    O     0.61850   0.05540   0.58820   0.00000  Uiso   1.00
C81    C     0.64990   0.13150   0.63860   0.00000  Uiso   1.00
C82    C     0.74450   0.15180   0.69260   0.00000  Uiso   1.00
H83    H     0.80821   0.17293   0.65792   0.00000  Uiso   1.00
H84    H     0.72810   0.08547   0.72213   0.00000  Uiso   1.00
O85    O     0.80450   0.41720   0.64720   0.00000  Uiso   1.00
O86    O     0.94460   0.56310   0.58820   0.00000  Uiso   1.00
C87    C     0.86850   0.51840   0.63860   0.00000  Uiso   1.00
C88    C     0.84820   0.59270   0.69260   0.00000  Uiso   1.00
H89    H     0.82707   0.63527   0.65792   0.00000  Uiso   1.00
H90    H     0.91453   0.64263   0.72213   0.00000  Uiso   1.00
O91    O     0.41720   0.61270   0.64720   0.00000  Uiso   1.00
O92    O     0.56310   0.61850   0.58820   0.00000  Uiso   1.00
C93    C     0.51840   0.64990   0.63860   0.00000  Uiso   1.00
C94    C     0.59270   0.74450   0.69260   0.00000  Uiso   1.00
H95    H     0.63527   0.80821   0.65792   0.00000  Uiso   1.00
H96    H     0.64263   0.72810   0.72213   0.00000  Uiso   1.00
O97    O     0.38730   0.80450   0.64720   0.00000  Uiso   1.00
O98    O     0.38150   0.94460   0.58820   0.00000  Uiso   1.00
C99    C     0.35010   0.86850   0.63860   0.00000  Uiso   1.00
C100   C     0.25550   0.84820   0.69260   0.00000  Uiso   1.00
H101   H     0.19179   0.82707   0.65792   0.00000  Uiso   1.00
H102   H     0.27190   0.91453   0.72213   0.00000  Uiso   1.00
O103   O     0.19550   0.58280   0.64720   0.00000  Uiso   1.00
O104   O     0.05540   0.43690   0.58820   0.00000  Uiso   1.00
C105   C     0.13150   0.48160   0.63860   0.00000  Uiso   1.00
C106   C     0.15180   0.40730   0.69260   0.00000  Uiso   1.00
H107   H     0.17293   0.36473   0.65792   0.00000  Uiso   1.00
H108   H     0.08547   0.35737   0.72213   0.00000  Uiso   1.00
O109   O     0.38730   0.58280   0.85280   0.00000  Uiso   1.00
O110   O     0.38150   0.43690   0.91180   0.00000  Uiso   1.00
C111   C     0.35010   0.48160   0.86140   0.00000  Uiso   1.00
C112   C     0.25550   0.40730   0.80740   0.00000  Uiso   1.00
H113   H     0.19179   0.36473   0.84208   0.00000  Uiso   1.00
H114   H     0.27190   0.35737   0.77787   0.00000  Uiso   1.00
O115   O     0.19550   0.61270   0.85280   0.00000  Uiso   1.00
O116   O     0.05540   0.61850   0.91180   0.00000  Uiso   1.00
C117   C     0.13150   0.64990   0.86140   0.00000  Uiso   1.00
C118   C     0.15180   0.74450   0.80740   0.00000  Uiso   1.00
H119   H     0.17293   0.80821   0.84208   0.00000  Uiso   1.00
H120   H     0.08547   0.72810   0.77787   0.00000  Uiso   1.00
O121   O     0.41720   0.80450   0.85280   0.00000  Uiso   1.00
O122   O     0.56310   0.94460   0.91180   0.00000  Uiso   1.00
C123   C     0.51840   0.86850   0.86140   0.00000  Uiso   1.00
C124   C     0.59270   0.84820   0.80740   0.00000  Uiso   1.00
H125   H     0.63527   0.82707   0.84208   0.00000  Uiso   1.00
H126   H     0.64263   0.91453   0.77787   0.00000  Uiso   1.00
O127   O     0.61270   0.41720   0.85280   0.00000  Uiso   1.00
O128   O     0.61850   0.56310   0.91180   0.00000  Uiso   1.00
C129   C     0.64990   0.51840   0.86140   0.00000  Uiso   1.00
C130   C     0.74450   0.59270   0.80740   0.00000  Uiso   1.00
H131   H     0.80821   0.63527   0.84208   0.00000  Uiso   1.00
H132   H     0.72810   0.64263   0.77787   0.00000  Uiso   1.00
O133   O     0.80450   0.38730   0.85280   0.00000  Uiso   1.00
O134   O     0.94460   0.38150   0.91180   0.00000  Uiso   1.00
C135   C     0.86850   0.35010   0.86140   0.00000  Uiso   1.00
C136   C     0.84820   0.25550   0.80740   0.00000  Uiso   1.00
H137   H     0.82707   0.19179   0.84208   0.00000  Uiso   1.00
H138   H     0.91453   0.27190   0.77787   0.00000  Uiso   1.00
O139   O     0.58280   0.19550   0.85280   0.00000  Uiso   1.00
O140   O     0.43690   0.05540   0.91180   0.00000  Uiso   1.00
C141   C     0.48160   0.13150   0.86140   0.00000  Uiso   1.00
C142   C     0.40730   0.15180   0.80740   0.00000  Uiso   1.00
H143   H     0.36473   0.17293   0.84208   0.00000  Uiso   1.00
H144   H     0.35737   0.08547   0.77787   0.00000  Uiso   1.00
Tm145  Tm    0.33333   0.66667   0.25000   0.00000  Uiso   1.00
Tm146  Tm    0.66667   0.33333   0.25000   0.00000  Uiso   1.00
Tm147  Tm    0.66667   0.33333   0.75000   0.00000  Uiso   1.00
Tm148  Tm    0.33333   0.66667   0.75000   0.00000  Uiso   1.00
Ni149  Ni    0.50000   0.50000   0.50000   0.00000  Uiso   1.00
Ni150  Ni    0.50000   0.00000   0.50000   0.00000  Uiso   1.00
Ni151  Ni    0.00000   0.50000   0.50000   0.00000  Uiso   1.00
Ni152  Ni    0.50000   0.50000   0.00000   0.00000  Uiso   1.00
Ni153  Ni    0.00000   0.50000   0.00000   0.00000  Uiso   1.00
Ni154  Ni    0.50000   0.00000   0.00000   0.00000  Uiso   1.00
O155   O     0.53160   0.76580   0.25000   0.00000  Uiso   1.00
O156   O     0.23420   0.76580   0.25000   0.00000  Uiso   1.00
O157   O     0.23420   0.46840   0.25000   0.00000  Uiso   1.00
O158   O     0.46840   0.23420   0.25000   0.00000  Uiso   1.00
O159   O     0.76580   0.23420   0.25000   0.00000  Uiso   1.00
O160   O     0.76580   0.53160   0.25000   0.00000  Uiso   1.00
O161   O     0.46840   0.23420   0.75000   0.00000  Uiso   1.00
O162   O     0.76580   0.23420   0.75000   0.00000  Uiso   1.00
O163   O     0.76580   0.53160   0.75000   0.00000  Uiso   1.00
O164   O     0.53160   0.76580   0.75000   0.00000  Uiso   1.00
O165   O     0.23420   0.76580   0.75000   0.00000  Uiso   1.00
O166   O     0.23420   0.46840   0.75000   0.00000  Uiso   1.00
O167   O     0.34840   0.49410   0.50000   0.00000  Uiso   1.00
O168   O     0.50590   0.85430   0.50000   0.00000  Uiso   1.00
O169   O     0.14570   0.65160   0.50000   0.00000  Uiso   1.00
O170   O     0.65160   0.50590   0.50000   0.00000  Uiso   1.00
O171   O     0.49410   0.14570   0.50000   0.00000  Uiso   1.00
O172   O     0.85430   0.34840   0.50000   0.00000  Uiso   1.00
O173   O     0.49410   0.34840   0.00000   0.00000  Uiso   1.00
O174   O     0.85430   0.50590   0.00000   0.00000  Uiso   1.00
O175   O     0.65160   0.14570   0.00000   0.00000  Uiso   1.00
O176   O     0.50590   0.65160   0.00000   0.00000  Uiso   1.00
O177   O     0.14570   0.49410   0.00000   0.00000  Uiso   1.00
O178   O     0.34840   0.85430   0.00000   0.00000  Uiso   1.00
loop_
_geom_bond_atom_site_label_1
_geom_bond_atom_site_label_2
_geom_bond_distance
_geom_bond_site_symmetry_2
_ccdc_geom_bond_type
O1     Tm145   2.367   .     S
O1     C3      1.264   .     S
O2     Ni149   2.025   .     S
O2     C3      1.237   .     S
C3     C4      1.496   .     S
C4     O155    1.394   .     S
C4     H5      0.970   .     S
C4     H6      0.970   .     S
O7     Tm145   2.367   .     S
O7     C9      1.264   .     S
O8     Ni150   2.025   1_565 S
O8     C9      1.237   .     S
C9     C10     1.496   .     S
C10    O156    1.394   .     S
C10    H11     0.970   .     S
C10    H12     0.970   .     S
O13    Tm145   2.367   .     S
O13    C15     1.264   .     S
O14    Ni151   2.025   .     S
O14    C15     1.237   .     S
C15    C16     1.496   .     S
C16    O157    1.394   .     S
C16    H17     0.970   .     S
C16    H18     0.970   .     S
O19    Tm146   2.367   .     S
O19    C21     1.264   .     S
O20    Ni149   2.025   .     S
O20    C21     1.237   .     S
C21    C22     1.496   .     S
C22    O158    1.394   .     S
C22    H23     0.970   .     S
C22    H24     0.970   .     S
O25    Tm146   2.367   .     S
O25    C27     1.264   .     S
O26    Ni150   2.025   .     S
O26    C27     1.237   .     S
C27    C28     1.496   .     S
C28    O159    1.394   .     S
C28    H29     0.970   .     S
C28    H30     0.970   .     S
O31    Tm146   2.367   .     S
O31    C33     1.264   .     S
O32    Ni151   2.025   1_655 S
O32    C33     1.237   .     S
C33    C34     1.496   .     S
C34    O160    1.394   .     S
C34    H35     0.970   .     S
C34    H36     0.970   .     S
O37    Tm146   2.367   .     S
O37    C39     1.264   .     S
O38    Ni152   2.025   .     S
O38    C39     1.237   .     S
C39    C40     1.496   .     S
C40    O160    1.394   .     S
C40    H41     0.970   .     S
C40    H42     0.970   .     S
O43    Tm146   2.367   .     S
O43    C45     1.264   .     S
O44    Ni153   2.025   1_655 S
O44    C45     1.237   .     S
C45    C46     1.496   .     S
C46    O159    1.394   .     S
C46    H47     0.970   .     S
C46    H48     0.970   .     S
O49    Tm146   2.367   .     S
O49    C51     1.264   .     S
O50    Ni154   2.025   .     S
O50    C51     1.237   .     S
C51    C52     1.496   .     S
C52    O158    1.394   .     S
C52    H53     0.970   .     S
C52    H54     0.970   .     S
O55    Tm145   2.367   .     S
O55    C57     1.264   .     S
O56    Ni152   2.025   .     S
O56    C57     1.237   .     S
C57    C58     1.496   .     S
C58    O157    1.394   .     S
C58    H59     0.970   .     S
C58    H60     0.970   .     S
O61    Tm145   2.367   .     S
O61    C63     1.264   .     S
O62    Ni153   2.025   .     S
O62    C63     1.237   .     S
C63    C64     1.496   .     S
C64    O156    1.394   .     S
C64    H65     0.970   .     S
C64    H66     0.970   .     S
O67    Tm145   2.367   .     S
O67    C69     1.264   .     S
O68    Ni154   2.025   1_565 S
O68    C69     1.237   .     S
C69    C70     1.496   .     S
C70    O155    1.394   .     S
C70    H71     0.970   .     S
C70    H72     0.970   .     S
O73    Tm147   2.367   .     S
O73    C75     1.264   .     S
O74    Ni149   2.025   .     S
O74    C75     1.237   .     S
C75    C76     1.496   .     S
C76    O161    1.394   .     S
C76    H77     0.970   .     S
C76    H78     0.970   .     S
O79    Tm147   2.367   .     S
O79    C81     1.264   .     S
O80    Ni150   2.025   .     S
O80    C81     1.237   .     S
C81    C82     1.496   .     S
C82    O162    1.394   .     S
C82    H83     0.970   .     S
C82    H84     0.970   .     S
O85    Tm147   2.367   .     S
O85    C87     1.264   .     S
O86    Ni151   2.025   1_655 S
O86    C87     1.237   .     S
C87    C88     1.496   .     S
C88    O163    1.394   .     S
C88    H89     0.970   .     S
C88    H90     0.970   .     S
O91    Tm148   2.367   .     S
O91    C93     1.264   .     S
O92    Ni149   2.025   .     S
O92    C93     1.237   .     S
C93    C94     1.496   .     S
C94    O164    1.394   .     S
C94    H95     0.970   .     S
C94    H96     0.970   .     S
O97    Tm148   2.367   .     S
O97    C99     1.264   .     S
O98    Ni150   2.025   1_565 S
O98    C99     1.237   .     S
C99    C100    1.496   .     S
C100   O165    1.394   .     S
C100   H101    0.970   .     S
C100   H102    0.970   .     S
O103   Tm148   2.367   .     S
O103   C105    1.264   .     S
O104   Ni151   2.025   .     S
O104   C105    1.237   .     S
C105   C106    1.496   .     S
C106   O166    1.394   .     S
C106   H107    0.970   .     S
C106   H108    0.970   .     S
O109   Tm148   2.367   .     S
O109   C111    1.264   .     S
O110   Ni152   2.025   1_556 S
O110   C111    1.237   .     S
C111   C112    1.496   .     S
C112   O166    1.394   .     S
C112   H113    0.970   .     S
C112   H114    0.970   .     S
O115   Tm148   2.367   .     S
O115   C117    1.264   .     S
O116   Ni153   2.025   1_556 S
O116   C117    1.237   .     S
C117   C118    1.496   .     S
C118   O165    1.394   .     S
C118   H119    0.970   .     S
C118   H120    0.970   .     S
O121   Tm148   2.367   .     S
O121   C123    1.264   .     S
O122   Ni154   2.025   1_566 S
O122   C123    1.237   .     S
C123   C124    1.496   .     S
C124   O164    1.394   .     S
C124   H125    0.970   .     S
C124   H126    0.970   .     S
O127   Tm147   2.367   .     S
O127   C129    1.264   .     S
O128   Ni152   2.025   1_556 S
O128   C129    1.237   .     S
C129   C130    1.496   .     S
C130   O163    1.394   .     S
C130   H131    0.970   .     S
C130   H132    0.970   .     S
O133   Tm147   2.367   .     S
O133   C135    1.264   .     S
O134   Ni153   2.025   1_656 S
O134   C135    1.237   .     S
C135   C136    1.496   .     S
C136   O162    1.394   .     S
C136   H137    0.970   .     S
C136   H138    0.970   .     S
O139   Tm147   2.367   .     S
O139   C141    1.264   .     S
O140   Ni154   2.025   1_556 S
O140   C141    1.237   .     S
C141   C142    1.496   .     S
C142   O161    1.394   .     S
C142   H143    0.970   .     S
C142   H144    0.970   .     S
Tm145  O155    2.433   .     S
Tm145  O156    2.433   .     S
Tm145  O157    2.433   .     S
Tm146  O158    2.433   .     S
Tm146  O159    2.433   .     S
Tm146  O160    2.433   .     S
Tm147  O161    2.433   .     S
Tm147  O162    2.433   .     S
Tm147  O163    2.433   .     S
Tm148  O164    2.433   .     S
Tm148  O165    2.433   .     S
Tm148  O166    2.433   .     S
Ni149  O167    2.108   .     S
Ni149  O170    2.108   .     S
Ni150  O168    2.108   1_545 S
Ni150  O171    2.108   .     S
Ni150  O8      2.025   1_545 S
Ni150  O98     2.025   1_545 S
Ni151  O169    2.108   .     S
Ni151  O172    2.108   1_455 S
Ni151  O32     2.025   1_455 S
Ni151  O86     2.025   1_455 S
Ni152  O173    2.108   .     S
Ni152  O176    2.108   .     S
Ni152  O110    2.025   1_554 S
Ni152  O128    2.025   1_554 S
Ni153  O174    2.108   1_455 S
Ni153  O177    2.108   .     S
Ni153  O44     2.025   1_455 S
Ni153  O116    2.025   1_554 S
Ni153  O134    2.025   1_454 S
Ni154  O175    2.108   .     S
Ni154  O178    2.108   1_545 S
Ni154  O68     2.025   1_545 S
Ni154  O122    2.025   1_544 S
Ni154  O140    2.025   1_554 S
O168   Ni150   2.108   1_565 S
O172   Ni151   2.108   1_655 S
O174   Ni153   2.108   1_655 S
O178   Ni154   2.108   1_565 S
