data_NAMGOA_FSR
_audit_creation_date              2024-06-11
_audit_creation_method            'Materials Studio'
_symmetry_space_group_name_H-M    'P1'
_symmetry_Int_Tables_number       1
_symmetry_cell_setting            triclinic
loop_
_symmetry_equiv_pos_as_xyz
  x,y,z
_cell_length_a                    9.3241
_cell_length_b                    15.0826
_cell_length_c                    10.2091
_cell_angle_alpha                 90.0000
_cell_angle_beta                  95.0570
_cell_angle_gamma                 90.0000
loop_
_atom_site_label
_atom_site_type_symbol
_atom_site_fract_x
_atom_site_fract_y
_atom_site_fract_z
_atom_site_U_iso_or_equiv
_atom_site_adp_type
_atom_site_occupancy
Zn1    Zn   -0.43023   0.65898   0.98014   0.00000  Uiso   1.00
Zn2    Zn    0.08286   0.69871   0.50853   0.00000  Uiso   1.00
Zn3    Zn   -0.43773   0.53740   0.46906   0.00000  Uiso   1.00
Zn4    Zn    0.05700   0.49028   0.00734   0.00000  Uiso   1.00
O5     O    -0.44960   0.48920   0.64660   0.00000  Uiso   1.00
N6     N     0.10300   0.53510   0.83090   0.00000  Uiso   1.00
C7     C    -0.24570   0.50690   0.01700   0.00000  Uiso   1.00
O8     O    -0.64330   0.47630   0.42350   0.00000  Uiso   1.00
O9     O    -0.46000   0.71500   0.17320   0.00000  Uiso   1.00
N10    N     0.11830   0.65240   0.33150   0.00000  Uiso   1.00
N11    N     0.10680   0.58120   0.14580   0.00000  Uiso   1.00
O12    O    -0.63490   0.70660   0.92560   0.00000  Uiso   1.00
O13    O    -0.42930   0.59680   0.79430   0.00000  Uiso   1.00
O14    O    -0.46520   0.58810   0.28500   0.00000  Uiso   1.00
N15    N     0.31720   0.92920   0.57880   0.00000  Uiso   1.00
N16    N     0.11060   0.60730   0.64930   0.00000  Uiso   1.00
C17    C    -0.22720   0.71070   0.48300   0.00000  Uiso   1.00
N18    N     0.31340   0.26870   0.06500   0.00000  Uiso   1.00
N19    N     0.18940   0.53170   0.64230   0.00000  Uiso   1.00
N20    N     0.18450   0.65590   0.13460   0.00000  Uiso   1.00
N21    N     0.19110   0.69970   0.24510   0.00000  Uiso   1.00
O22    O    -0.22910   0.58650   0.03860   0.00000  Uiso   1.00
N23    N     0.28940   0.80600   0.68210   0.00000  Uiso   1.00
N24    N     0.20380   0.80340   0.56720   0.00000  Uiso   1.00
N25    N     0.26350   0.38320   0.17750   0.00000  Uiso   1.00
C26    C     0.06870   0.57980   0.26840   0.00000  Uiso   1.00
N27    N     0.18500   0.48920   0.75220   0.00000  Uiso   1.00
O28    O    -0.10720   0.75260   0.49380   0.00000  Uiso   1.00
O29    O    -0.23850   0.62950   0.49650   0.00000  Uiso   1.00
O30    O    -0.14420   0.45090   0.00040   0.00000  Uiso   1.00
C31    C     0.05880   0.60790   0.76620   0.00000  Uiso   1.00
C32    C     0.14110   0.28780   0.86550   0.00000  Uiso   1.00
H33    H     0.07020   0.33316   0.83603   0.00000  Uiso   1.00
H34    H     0.21321   0.28282   0.80157   0.00000  Uiso   1.00
H35    H     0.09245   0.23066   0.87287   0.00000  Uiso   1.00
O36    O    -0.49890   0.53280   0.04510   0.00000  Uiso   1.00
C37    C     0.14270   0.90690   0.37910   0.00000  Uiso   1.00
H38    H     0.17489   0.96596   0.35463   0.00000  Uiso   1.00
H39    H     0.16219   0.86425   0.31043   0.00000  Uiso   1.00
H40    H     0.03904   0.90826   0.38880   0.00000  Uiso   1.00
N41    N     0.17910   0.38600   0.06080   0.00000  Uiso   1.00
C42    C     0.21250   0.31300   0.99470   0.00000  Uiso   1.00
N43    N     0.35710   0.88170   0.68960   0.00000  Uiso   1.00
N44    N     0.34430   0.31340   0.17870   0.00000  Uiso   1.00
O45    O    -0.54170   0.66410   0.49820   0.00000  Uiso   1.00
C46    C    -0.44050   0.51660   0.76320   0.00000  Uiso   1.00
C47    C    -0.01890   0.50950   0.32360   0.00000  Uiso   1.00
H48    H    -0.03231   0.52337   0.41550   0.00000  Uiso   1.00
H49    H    -0.11292   0.50616   0.27282   0.00000  Uiso   1.00
H50    H     0.03066   0.45241   0.31908   0.00000  Uiso   1.00
C51    C    -0.47200   0.67170   0.27620   0.00000  Uiso   1.00
C52    C     0.22180   0.87960   0.50650   0.00000  Uiso   1.00
C53    C    -0.03350   0.67860   0.81560   0.00000  Uiso   1.00
H54    H    -0.05010   0.72476   0.74844   0.00000  Uiso   1.00
H55    H    -0.12596   0.65307   0.83502   0.00000  Uiso   1.00
H56    H     0.01462   0.70448   0.89581   0.00000  Uiso   1.00
C57    C    -0.49270   0.72500   0.40200   0.00000  Uiso   1.00
H58    H    -0.56896   0.77073   0.38114   0.00000  Uiso   1.00
C59    C    -0.35600   0.77110   0.45440   0.00000  Uiso   1.00
H60    H    -0.37423   0.80254   0.53640   0.00000  Uiso   1.00
H61    H    -0.33156   0.81631   0.38966   0.00000  Uiso   1.00
C62    C    -0.44600   0.44300   0.86350   0.00000  Uiso   1.00
H63    H    -0.54594   0.42048   0.85986   0.00000  Uiso   1.00
H64    H    -0.38428   0.39376   0.83751   0.00000  Uiso   1.00
C65    C    -0.39860   0.46820   0.00510   0.00000  Uiso   1.00
H66    H    -0.40128   0.41451   0.06231   0.00000  Uiso   1.00
H67    H    -0.68000   0.45500   0.35200   0.00000  Uiso   1.00
H68    H    -0.66000   0.72900   0.85100   0.00000  Uiso   1.00
H69    H    -0.69300   0.46100   0.48500   0.00000  Uiso   1.00
H70    H    -0.69900   0.69100   0.97600   0.00000  Uiso   1.00
Zn71   Zn    0.43023   0.15898   0.01986   0.00000  Uiso   1.00
Zn72   Zn   -0.08286   0.19871   0.49147   0.00000  Uiso   1.00
Zn73   Zn    0.43773   0.03740   0.53094   0.00000  Uiso   1.00
Zn74   Zn   -0.05700   0.99028   0.99266   0.00000  Uiso   1.00
O75    O     0.44960   0.98920   0.35340   0.00000  Uiso   1.00
N76    N    -0.10300   0.03510   0.16910   0.00000  Uiso   1.00
C77    C     0.24570   0.00690   0.98300   0.00000  Uiso   1.00
O78    O     0.64330   0.97630   0.57650   0.00000  Uiso   1.00
O79    O     0.46000   0.21500   0.82680   0.00000  Uiso   1.00
N80    N    -0.11830   0.15240   0.66850   0.00000  Uiso   1.00
N81    N    -0.10680   0.08120   0.85420   0.00000  Uiso   1.00
O82    O     0.63490   0.20660   0.07440   0.00000  Uiso   1.00
O83    O     0.42930   0.09680   0.20570   0.00000  Uiso   1.00
O84    O     0.46520   0.08810   0.71500   0.00000  Uiso   1.00
N85    N    -0.31720   0.42920   0.42120   0.00000  Uiso   1.00
N86    N    -0.11060   0.10730   0.35070   0.00000  Uiso   1.00
C87    C     0.22720   0.21070   0.51700   0.00000  Uiso   1.00
N88    N    -0.31340   0.76870   0.93500   0.00000  Uiso   1.00
N89    N    -0.18940   0.03170   0.35770   0.00000  Uiso   1.00
N90    N    -0.18450   0.15590   0.86540   0.00000  Uiso   1.00
N91    N    -0.19110   0.19970   0.75490   0.00000  Uiso   1.00
O92    O     0.22910   0.08650   0.96140   0.00000  Uiso   1.00
N93    N    -0.28940   0.30600   0.31790   0.00000  Uiso   1.00
N94    N    -0.20380   0.30340   0.43280   0.00000  Uiso   1.00
N95    N    -0.26350   0.88320   0.82250   0.00000  Uiso   1.00
C96    C    -0.06870   0.07980   0.73160   0.00000  Uiso   1.00
N97    N    -0.18500   0.98920   0.24780   0.00000  Uiso   1.00
O98    O     0.10720   0.25260   0.50620   0.00000  Uiso   1.00
O99    O     0.23850   0.12950   0.50350   0.00000  Uiso   1.00
O100   O     0.14420   0.95090   0.99960   0.00000  Uiso   1.00
C101   C    -0.05880   0.10790   0.23380   0.00000  Uiso   1.00
C102   C    -0.14110   0.78780   0.13450   0.00000  Uiso   1.00
H103   H    -0.07020   0.83316   0.16397   0.00000  Uiso   1.00
H104   H    -0.21321   0.78282   0.19843   0.00000  Uiso   1.00
H105   H    -0.09245   0.73066   0.12713   0.00000  Uiso   1.00
O106   O     0.49890   0.03280   0.95490   0.00000  Uiso   1.00
C107   C    -0.14270   0.40690   0.62090   0.00000  Uiso   1.00
H108   H    -0.17489   0.46596   0.64537   0.00000  Uiso   1.00
H109   H    -0.16219   0.36425   0.68957   0.00000  Uiso   1.00
H110   H    -0.03904   0.40826   0.61120   0.00000  Uiso   1.00
N111   N    -0.17910   0.88600   0.93920   0.00000  Uiso   1.00
C112   C    -0.21250   0.81300   0.00530   0.00000  Uiso   1.00
N113   N    -0.35710   0.38170   0.31040   0.00000  Uiso   1.00
N114   N    -0.34430   0.81340   0.82130   0.00000  Uiso   1.00
O115   O     0.54170   0.16410   0.50180   0.00000  Uiso   1.00
C116   C     0.44050   0.01660   0.23680   0.00000  Uiso   1.00
C117   C     0.01890   0.00950   0.67640   0.00000  Uiso   1.00
H118   H     0.03231   0.02337   0.58450   0.00000  Uiso   1.00
H119   H     0.11292   0.00616   0.72718   0.00000  Uiso   1.00
H120   H    -0.03066   0.95241   0.68092   0.00000  Uiso   1.00
C121   C     0.47200   0.17170   0.72380   0.00000  Uiso   1.00
C122   C    -0.22180   0.37960   0.49350   0.00000  Uiso   1.00
C123   C     0.03350   0.17860   0.18440   0.00000  Uiso   1.00
H124   H     0.05010   0.22476   0.25156   0.00000  Uiso   1.00
H125   H     0.12596   0.15307   0.16498   0.00000  Uiso   1.00
H126   H    -0.01462   0.20448   0.10419   0.00000  Uiso   1.00
C127   C     0.49270   0.22500   0.59800   0.00000  Uiso   1.00
H128   H     0.56896   0.27073   0.61886   0.00000  Uiso   1.00
C129   C     0.35600   0.27110   0.54560   0.00000  Uiso   1.00
H130   H     0.37423   0.30255   0.46360   0.00000  Uiso   1.00
H131   H     0.33156   0.31631   0.61034   0.00000  Uiso   1.00
C132   C     0.44600   0.94300   0.13650   0.00000  Uiso   1.00
H133   H     0.54594   0.92048   0.14014   0.00000  Uiso   1.00
H134   H     0.38428   0.89376   0.16249   0.00000  Uiso   1.00
C135   C     0.39860   0.96820   0.99490   0.00000  Uiso   1.00
H136   H     0.40128   0.91451   0.93769   0.00000  Uiso   1.00
H137   H     0.68000   0.95500   0.64800   0.00000  Uiso   1.00
H138   H     0.66000   0.22900   0.14900   0.00000  Uiso   1.00
H139   H     0.69300   0.96100   0.51500   0.00000  Uiso   1.00
H140   H     0.69900   0.19100   0.02400   0.00000  Uiso   1.00
loop_
_geom_bond_atom_site_label_1
_geom_bond_atom_site_label_2
_geom_bond_distance
_geom_bond_site_symmetry_2
_ccdc_geom_bond_type
Zn1    O9      2.185   1_556 S
Zn1    O12     2.069   .     S
Zn1    O13     2.117   .     S
Zn1    O22     2.207   1_556 S
Zn1    O36     2.132   1_556 S
Zn1    N88     2.056   .     S
Zn2    N10     1.992   .     S
Zn2    N16     1.992   .     S
Zn2    N24     2.001   .     S
Zn2    O28     1.943   .     S
Zn3    O8      2.141   .     S
Zn3    O14     2.024   .     S
Zn3    O29     2.317   .     S
Zn3    O45     2.175   .     S
Zn3    O5      1.965   .     S
Zn3    N85     2.064   .     S
Zn4    N11     1.995   .     S
Zn4    O30     1.963   .     S
Zn4    N41     1.990   .     S
Zn4    N6      2.005   1_554 S
O5     C46     1.256   .     S
N6     N27     1.348   .     S
N6     C31     1.328   .     S
N6     Zn4     2.005   1_556 S
C7     O22     1.228   .     S
C7     C65     1.535   .     S
C7     O30     1.291   .     S
O8     H67     0.842   .     S
O8     H69     0.845   .     S
O9     Zn1     2.185   1_554 S
O9     C51     1.251   .     S
N10    N21     1.361   .     S
N10    C26     1.332   .     S
N11    N20     1.350   .     S
N11    C26     1.331   .     S
O12    H68     0.847   .     S
O12    H70     0.855   .     S
O13    C46     1.253   .     S
O14    C51     1.265   .     S
N15    N43     1.363   .     S
N15    C52     1.334   .     S
N15    Zn73    2.064   1_565 S
N16    N19     1.362   .     S
N16    C31     1.326   .     S
C17    O28     1.281   .     S
C17    C59     1.515   .     S
C17    O29     1.238   .     S
N18    C42     1.314   1_554 S
N18    N44     1.351   .     S
N18    Zn71    2.056   .     S
N19    N27     1.296   .     S
N20    N21     1.304   .     S
O22    Zn1     2.207   1_554 S
N23    N24     1.360   .     S
N23    N43     1.304   .     S
N24    C52     1.323   .     S
N25    N41     1.369   .     S
N25    N44     1.294   .     S
C26    C47     1.480   .     S
C31    C53     1.486   .     S
C32    H33     0.980   .     S
C32    H34     0.980   .     S
C32    H35     0.980   .     S
C32    C42     1.474   .     S
O36    Zn1     2.132   1_554 S
O36    C65     1.435   .     S
C37    H38     0.979   .     S
C37    H39     0.980   .     S
C37    H40     0.980   .     S
C37    C52     1.495   .     S
N41    C42     1.342   1_554 S
C42    N18     1.314   1_556 S
C42    N41     1.342   1_556 S
O45    C57     1.448   .     S
C46    C62     1.514   .     S
C47    H48     0.980   .     S
C47    H49     0.980   .     S
C47    H50     0.980   .     S
C51    C57     1.542   .     S
C53    H54     0.980   .     S
C53    H55     0.980   .     S
C53    H56     0.979   .     S
C57    H58     1.000   .     S
C57    C59     1.508   .     S
C59    H60     0.990   .     S
C59    H61     0.990   .     S
C62    H63     0.989   .     S
C62    H64     0.990   .     S
C62    C65     1.522   1_556 S
C65    H66     1.000   .     S
C65    C62     1.522   1_554 S
Zn71   O79     2.185   1_554 S
Zn71   O82     2.069   .     S
Zn71   O83     2.117   .     S
Zn71   O92     2.207   1_554 S
Zn71   O106    2.132   1_554 S
Zn72   N80     1.992   .     S
Zn72   N86     1.992   .     S
Zn72   N94     2.001   .     S
Zn72   O98     1.943   .     S
Zn73   O78     2.141   1_545 S
Zn73   O84     2.024   .     S
Zn73   O99     2.317   .     S
Zn73   O115    2.175   .     S
Zn73   O75     1.965   1_545 S
Zn73   N15     2.064   1_545 S
Zn74   N81     1.995   1_565 S
Zn74   O100    1.963   .     S
Zn74   N111    1.990   .     S
Zn74   N76     2.005   1_566 S
O75    C116    1.256   1_565 S
O75    Zn73    1.965   1_565 S
N76    N97     1.348   1_545 S
N76    C101    1.328   .     S
N76    Zn74    2.005   1_544 S
C77    O92     1.228   .     S
C77    C135    1.535   1_545 S
C77    O100    1.291   1_545 S
O78    Zn73    2.141   1_565 S
O78    H137    0.842   .     S
O78    H139    0.845   .     S
O79    Zn71    2.185   1_556 S
O79    C121    1.251   .     S
N80    N91     1.361   .     S
N80    C96     1.332   .     S
N81    Zn74    1.995   1_545 S
N81    N90     1.350   .     S
N81    C96     1.331   .     S
O82    H138    0.847   .     S
O82    H140    0.855   .     S
O83    C116    1.253   .     S
O84    C121    1.265   .     S
N85    N113    1.363   .     S
N85    C122    1.334   .     S
N86    N89     1.362   .     S
N86    C101    1.326   .     S
C87    O98     1.281   .     S
C87    C129    1.515   .     S
C87    O99     1.238   .     S
N88    C112    1.314   1_556 S
N88    N114    1.351   .     S
N89    N97     1.296   1_545 S
N90    N91     1.304   .     S
O92    Zn71    2.207   1_556 S
N93    N94     1.360   .     S
N93    N113    1.304   .     S
N94    C122    1.323   .     S
N95    N111    1.369   .     S
N95    N114    1.294   .     S
C96    C117    1.480   .     S
N97    N76     1.348   1_565 S
N97    N89     1.296   1_565 S
O100   C77     1.291   1_565 S
C101   C123    1.486   .     S
C102   H103    0.980   .     S
C102   H104    0.980   .     S
C102   H105    0.980   .     S
C102   C112    1.474   .     S
O106   Zn71    2.132   1_556 S
O106   C135    1.435   1_545 S
C107   H108    0.979   .     S
C107   H109    0.980   .     S
C107   H110    0.980   .     S
C107   C122    1.495   .     S
N111   C112    1.342   1_556 S
C112   N88     1.314   1_554 S
C112   N111    1.342   1_554 S
O115   C127    1.448   .     S
C116   O75     1.256   1_545 S
C116   C132    1.514   1_545 S
C117   H118    0.980   .     S
C117   H119    0.980   .     S
C117   H120    0.980   1_545 S
H120   C117    0.980   1_565 S
C121   C127    1.542   .     S
C123   H124    0.980   .     S
C123   H125    0.980   .     S
C123   H126    0.979   .     S
C127   H128    1.000   .     S
C127   C129    1.508   .     S
C129   H130    0.990   .     S
C129   H131    0.990   .     S
C132   C116    1.514   1_565 S
C132   H133    0.989   .     S
C132   H134    0.990   .     S
C132   C135    1.522   1_554 S
C135   C77     1.535   1_565 S
C135   H136    1.000   .     S
C135   O106    1.435   1_565 S
C135   C132    1.522   1_556 S
