data_NEZWOG01_FSR
_audit_creation_date              2024-06-11
_audit_creation_method            'Materials Studio'
_symmetry_space_group_name_H-M    'P1'
_symmetry_Int_Tables_number       1
_symmetry_cell_setting            triclinic
loop_
_symmetry_equiv_pos_as_xyz
  x,y,z
_cell_length_a                    13.4679
_cell_length_b                    26.8554
_cell_length_c                    11.1155
_cell_angle_alpha                 90.0000
_cell_angle_beta                  90.0000
_cell_angle_gamma                 90.0000
loop_
_atom_site_label
_atom_site_type_symbol
_atom_site_fract_x
_atom_site_fract_y
_atom_site_fract_z
_atom_site_U_iso_or_equiv
_atom_site_adp_type
_atom_site_occupancy
La1    La    0.65000   0.27931   0.26200   0.00000  Uiso   1.00
P2     P     0.69580   0.30160   0.92100   0.00000  Uiso   1.00
P3     P     0.71040   0.40640   0.57510   0.00000  Uiso   1.00
O4     O     0.65960   0.29600   0.05130   0.00000  Uiso   1.00
O5     O     0.79890   0.27670   0.91010   0.00000  Uiso   1.00
O6     O     0.71510   0.35510   0.87710   0.00000  Uiso   1.00
C7     C     0.60360   0.27190   0.82720   0.00000  Uiso   1.00
O8     O     0.51530   0.27260   0.89200   0.00000  Uiso   1.00
C9     C     0.59750   0.26760   0.69380   0.00000  Uiso   1.00
O10    O     0.68050   0.25740   0.64440   0.00000  Uiso   1.00
O11    O     0.52550   0.27040   0.62230   0.00000  Uiso   1.00
O12    O     0.75210   0.37980   0.68600   0.00000  Uiso   1.00
O13    O     0.78430   0.41710   0.47090   0.00000  Uiso   1.00
O14    O     0.65380   0.45370   0.61200   0.00000  Uiso   1.00
C15    C     0.62180   0.36310   0.51200   0.00000  Uiso   1.00
O16    O     0.67890   0.32380   0.46350   0.00000  Uiso   1.00
C17    C     0.58300   0.39370   0.40930   0.00000  Uiso   1.00
O18    O     0.55310   0.36630   0.32430   0.00000  Uiso   1.00
O19    O     0.61240   0.43680   0.38030   0.00000  Uiso   1.00
O20    O     0.62000   0.19450   0.14200   0.00000  Uiso   1.00
O21    O     0.81350   0.34090   0.29700   0.00000  Uiso   1.00
O22    O     0.54960   0.57650   0.63480   0.00000  Uiso   1.00
O23    O     0.58420   0.57330   0.39410   0.00000  Uiso   1.00
La24   La    0.15000   0.77931   0.76200   0.00000  Uiso   1.00
P25    P     0.19580   0.80160   0.42100   0.00000  Uiso   1.00
P26    P     0.21040   0.90640   0.07510   0.00000  Uiso   1.00
O27    O     0.15960   0.79600   0.55130   0.00000  Uiso   1.00
O28    O     0.29890   0.77670   0.41010   0.00000  Uiso   1.00
O29    O     0.21510   0.85510   0.37710   0.00000  Uiso   1.00
C30    C     0.10360   0.77190   0.32720   0.00000  Uiso   1.00
O31    O     0.01530   0.77260   0.39200   0.00000  Uiso   1.00
C32    C     0.09750   0.76760   0.19380   0.00000  Uiso   1.00
O33    O     0.18050   0.75740   0.14440   0.00000  Uiso   1.00
O34    O     0.02550   0.77040   0.12230   0.00000  Uiso   1.00
O35    O     0.25210   0.87980   0.18600   0.00000  Uiso   1.00
O36    O     0.28430   0.91710   0.97090   0.00000  Uiso   1.00
O37    O     0.15380   0.95370   0.11200   0.00000  Uiso   1.00
C38    C     0.12180   0.86310   0.01200   0.00000  Uiso   1.00
O39    O     0.17890   0.82380   0.96350   0.00000  Uiso   1.00
C40    C     0.08300   0.89370   0.90930   0.00000  Uiso   1.00
O41    O     0.05310   0.86630   0.82430   0.00000  Uiso   1.00
O42    O     0.11240   0.93680   0.88030   0.00000  Uiso   1.00
O43    O     0.12000   0.69450   0.64200   0.00000  Uiso   1.00
O44    O     0.31350   0.84090   0.79700   0.00000  Uiso   1.00
O45    O     0.04960   0.07650   0.13480   0.00000  Uiso   1.00
O46    O     0.08420   0.07330   0.89410   0.00000  Uiso   1.00
La47   La    0.35000   0.72069   0.26200   0.00000  Uiso   1.00
P48    P     0.30420   0.69840   0.92100   0.00000  Uiso   1.00
P49    P     0.28960   0.59360   0.57510   0.00000  Uiso   1.00
O50    O     0.34040   0.70400   0.05130   0.00000  Uiso   1.00
O51    O     0.20110   0.72330   0.91010   0.00000  Uiso   1.00
O52    O     0.28490   0.64490   0.87710   0.00000  Uiso   1.00
C53    C     0.39640   0.72810   0.82720   0.00000  Uiso   1.00
O54    O     0.48470   0.72740   0.89200   0.00000  Uiso   1.00
C55    C     0.40250   0.73240   0.69380   0.00000  Uiso   1.00
O56    O     0.31950   0.74260   0.64440   0.00000  Uiso   1.00
O57    O     0.47450   0.72960   0.62230   0.00000  Uiso   1.00
O58    O     0.24790   0.62020   0.68600   0.00000  Uiso   1.00
O59    O     0.21570   0.58290   0.47090   0.00000  Uiso   1.00
O60    O     0.34620   0.54630   0.61200   0.00000  Uiso   1.00
C61    C     0.37820   0.63690   0.51200   0.00000  Uiso   1.00
O62    O     0.32110   0.67620   0.46350   0.00000  Uiso   1.00
C63    C     0.41700   0.60630   0.40930   0.00000  Uiso   1.00
O64    O     0.44690   0.63370   0.32430   0.00000  Uiso   1.00
O65    O     0.38760   0.56320   0.38030   0.00000  Uiso   1.00
O66    O     0.38000   0.80550   0.14200   0.00000  Uiso   1.00
O67    O     0.18650   0.65910   0.29700   0.00000  Uiso   1.00
O68    O     0.45040   0.42350   0.63480   0.00000  Uiso   1.00
O69    O     0.41580   0.42670   0.39410   0.00000  Uiso   1.00
La70   La    0.85000   0.22069   0.76200   0.00000  Uiso   1.00
P71    P     0.80420   0.19840   0.42100   0.00000  Uiso   1.00
P72    P     0.78960   0.09360   0.07510   0.00000  Uiso   1.00
O73    O     0.84040   0.20400   0.55130   0.00000  Uiso   1.00
O74    O     0.70110   0.22330   0.41010   0.00000  Uiso   1.00
O75    O     0.78490   0.14490   0.37710   0.00000  Uiso   1.00
C76    C     0.89640   0.22810   0.32720   0.00000  Uiso   1.00
O77    O     0.98470   0.22740   0.39200   0.00000  Uiso   1.00
C78    C     0.90250   0.23240   0.19380   0.00000  Uiso   1.00
O79    O     0.81950   0.24260   0.14440   0.00000  Uiso   1.00
O80    O     0.97450   0.22960   0.12230   0.00000  Uiso   1.00
O81    O     0.74790   0.12020   0.18600   0.00000  Uiso   1.00
O82    O     0.71570   0.08290   0.97090   0.00000  Uiso   1.00
O83    O     0.84620   0.04630   0.11200   0.00000  Uiso   1.00
C84    C     0.87820   0.13690   0.01200   0.00000  Uiso   1.00
O85    O     0.82110   0.17620   0.96350   0.00000  Uiso   1.00
C86    C     0.91700   0.10630   0.90930   0.00000  Uiso   1.00
O87    O     0.94690   0.13370   0.82430   0.00000  Uiso   1.00
O88    O     0.88760   0.06320   0.88030   0.00000  Uiso   1.00
O89    O     0.88000   0.30550   0.64200   0.00000  Uiso   1.00
O90    O     0.68650   0.15910   0.79700   0.00000  Uiso   1.00
O91    O     0.95040   0.92350   0.13480   0.00000  Uiso   1.00
O92    O     0.91580   0.92670   0.89410   0.00000  Uiso   1.00
La93   La    0.15000   0.22069   0.26200   0.00000  Uiso   1.00
P94    P     0.19580   0.19840   0.92100   0.00000  Uiso   1.00
P95    P     0.21040   0.09360   0.57510   0.00000  Uiso   1.00
O96    O     0.15960   0.20400   0.05130   0.00000  Uiso   1.00
O97    O     0.29890   0.22330   0.91010   0.00000  Uiso   1.00
O98    O     0.21510   0.14490   0.87710   0.00000  Uiso   1.00
C99    C     0.10360   0.22810   0.82720   0.00000  Uiso   1.00
O100   O     0.01530   0.22740   0.89200   0.00000  Uiso   1.00
C101   C     0.09750   0.23240   0.69380   0.00000  Uiso   1.00
O102   O     0.18050   0.24260   0.64440   0.00000  Uiso   1.00
O103   O     0.02550   0.22960   0.62230   0.00000  Uiso   1.00
O104   O     0.25210   0.12020   0.68600   0.00000  Uiso   1.00
O105   O     0.28430   0.08290   0.47090   0.00000  Uiso   1.00
O106   O     0.15380   0.04630   0.61200   0.00000  Uiso   1.00
C107   C     0.12180   0.13690   0.51200   0.00000  Uiso   1.00
O108   O     0.17890   0.17620   0.46350   0.00000  Uiso   1.00
C109   C     0.08300   0.10630   0.40930   0.00000  Uiso   1.00
O110   O     0.05310   0.13370   0.32430   0.00000  Uiso   1.00
O111   O     0.11240   0.06320   0.38030   0.00000  Uiso   1.00
O112   O     0.12000   0.30550   0.14200   0.00000  Uiso   1.00
O113   O     0.31350   0.15910   0.29700   0.00000  Uiso   1.00
O114   O     0.04960   0.92350   0.63480   0.00000  Uiso   1.00
O115   O     0.08420   0.92670   0.39410   0.00000  Uiso   1.00
La116  La    0.65000   0.72069   0.76200   0.00000  Uiso   1.00
P117   P     0.69580   0.69840   0.42100   0.00000  Uiso   1.00
P118   P     0.71040   0.59360   0.07510   0.00000  Uiso   1.00
O119   O     0.65960   0.70400   0.55130   0.00000  Uiso   1.00
O120   O     0.79890   0.72330   0.41010   0.00000  Uiso   1.00
O121   O     0.71510   0.64490   0.37710   0.00000  Uiso   1.00
C122   C     0.60360   0.72810   0.32720   0.00000  Uiso   1.00
O123   O     0.51530   0.72740   0.39200   0.00000  Uiso   1.00
C124   C     0.59750   0.73240   0.19380   0.00000  Uiso   1.00
O125   O     0.68050   0.74260   0.14440   0.00000  Uiso   1.00
O126   O     0.52550   0.72960   0.12230   0.00000  Uiso   1.00
O127   O     0.75210   0.62020   0.18600   0.00000  Uiso   1.00
O128   O     0.78430   0.58290   0.97090   0.00000  Uiso   1.00
O129   O     0.65380   0.54630   0.11200   0.00000  Uiso   1.00
C130   C     0.62180   0.63690   0.01200   0.00000  Uiso   1.00
O131   O     0.67890   0.67620   0.96350   0.00000  Uiso   1.00
C132   C     0.58300   0.60630   0.90930   0.00000  Uiso   1.00
O133   O     0.55310   0.63370   0.82430   0.00000  Uiso   1.00
O134   O     0.61240   0.56320   0.88030   0.00000  Uiso   1.00
O135   O     0.62000   0.80550   0.64200   0.00000  Uiso   1.00
O136   O     0.81350   0.65910   0.79700   0.00000  Uiso   1.00
O137   O     0.54960   0.42350   0.13480   0.00000  Uiso   1.00
O138   O     0.58420   0.42670   0.89410   0.00000  Uiso   1.00
La139  La    0.85000   0.77931   0.26200   0.00000  Uiso   1.00
P140   P     0.80420   0.80160   0.92100   0.00000  Uiso   1.00
P141   P     0.78960   0.90640   0.57510   0.00000  Uiso   1.00
O142   O     0.84040   0.79600   0.05130   0.00000  Uiso   1.00
O143   O     0.70110   0.77670   0.91010   0.00000  Uiso   1.00
O144   O     0.78490   0.85510   0.87710   0.00000  Uiso   1.00
C145   C     0.89640   0.77190   0.82720   0.00000  Uiso   1.00
O146   O     0.98470   0.77260   0.89200   0.00000  Uiso   1.00
C147   C     0.90250   0.76760   0.69380   0.00000  Uiso   1.00
O148   O     0.81950   0.75740   0.64440   0.00000  Uiso   1.00
O149   O     0.97450   0.77040   0.62230   0.00000  Uiso   1.00
O150   O     0.74790   0.87980   0.68600   0.00000  Uiso   1.00
O151   O     0.71570   0.91710   0.47090   0.00000  Uiso   1.00
O152   O     0.84620   0.95370   0.61200   0.00000  Uiso   1.00
C153   C     0.87820   0.86310   0.51200   0.00000  Uiso   1.00
O154   O     0.82110   0.82380   0.46350   0.00000  Uiso   1.00
C155   C     0.91700   0.89370   0.40930   0.00000  Uiso   1.00
O156   O     0.94690   0.86630   0.32430   0.00000  Uiso   1.00
O157   O     0.88760   0.93680   0.38030   0.00000  Uiso   1.00
O158   O     0.88000   0.69450   0.14200   0.00000  Uiso   1.00
O159   O     0.68650   0.84090   0.29700   0.00000  Uiso   1.00
O160   O     0.95040   0.07650   0.63480   0.00000  Uiso   1.00
O161   O     0.91580   0.07330   0.39410   0.00000  Uiso   1.00
La162  La    0.35000   0.27931   0.76200   0.00000  Uiso   1.00
P163   P     0.30420   0.30160   0.42100   0.00000  Uiso   1.00
P164   P     0.28960   0.40640   0.07510   0.00000  Uiso   1.00
O165   O     0.34040   0.29600   0.55130   0.00000  Uiso   1.00
O166   O     0.20110   0.27670   0.41010   0.00000  Uiso   1.00
O167   O     0.28490   0.35510   0.37710   0.00000  Uiso   1.00
C168   C     0.39640   0.27190   0.32720   0.00000  Uiso   1.00
O169   O     0.48470   0.27260   0.39200   0.00000  Uiso   1.00
C170   C     0.40250   0.26760   0.19380   0.00000  Uiso   1.00
O171   O     0.31950   0.25740   0.14440   0.00000  Uiso   1.00
O172   O     0.47450   0.27040   0.12230   0.00000  Uiso   1.00
O173   O     0.24790   0.37980   0.18600   0.00000  Uiso   1.00
O174   O     0.21570   0.41710   0.97090   0.00000  Uiso   1.00
O175   O     0.34620   0.45370   0.11200   0.00000  Uiso   1.00
C176   C     0.37820   0.36310   0.01200   0.00000  Uiso   1.00
O177   O     0.32110   0.32380   0.96350   0.00000  Uiso   1.00
C178   C     0.41700   0.39370   0.90930   0.00000  Uiso   1.00
O179   O     0.44690   0.36630   0.82430   0.00000  Uiso   1.00
O180   O     0.38760   0.43680   0.88030   0.00000  Uiso   1.00
O181   O     0.38000   0.19450   0.64200   0.00000  Uiso   1.00
O182   O     0.18650   0.34090   0.79700   0.00000  Uiso   1.00
O183   O     0.45040   0.57650   0.13480   0.00000  Uiso   1.00
O184   O     0.41580   0.57330   0.89410   0.00000  Uiso   1.00
La185  La    0.50000   0.50000   0.54640   0.00000  Uiso   1.00
La186  La    0.00000  -0.00000   0.04640   0.00000  Uiso   1.00
La187  La    0.00000   0.00000   0.54640   0.00000  Uiso   1.00
La188  La    0.50000   0.50000   0.04640   0.00000  Uiso   1.00
loop_
_geom_bond_atom_site_label_1
_geom_bond_atom_site_label_2
_geom_bond_distance
_geom_bond_site_symmetry_2
_ccdc_geom_bond_type
La1    O4      2.388   .     S
La1    O16     2.568   .     S
La1    O18     2.764   .     S
La1    O20     2.670   .     S
La1    O21     2.781   .     S
La1    O74     2.334   .     S
La1    O169    2.660   .     S
La1    O79     2.809   .     S
La1    O172    2.838   .     S
P2     O4      1.536   1_556 S
P2     O5      1.546   .     S
P2     O6      1.539   .     S
P2     C7      1.807   .     S
P3     O12     1.531   .     S
P3     O13     1.554   .     S
P3     O14     1.537   .     S
P3     C15     1.808   .     S
O4     P2      1.536   1_554 S
O5     La70    2.334   .     S
C7     O8      1.390   .     S
C7     C9      1.490   .     S
O8     La162   2.660   .     S
C9     O10     1.275   .     S
C9     O11     1.256   .     S
O10    La70    2.809   .     S
O11    La162   2.838   .     S
O14    La185   2.524   .     S
C15    C17     1.501   .     S
C15    O16     1.413   .     S
C17    O18     1.263   .     S
C17    O19     1.265   .     S
O19    La185   2.929   .     S
O22    La185   2.373   .     S
O23    La185   2.833   .     S
La24   O27     2.388   .     S
La24   O39     2.568   .     S
La24   O41     2.764   .     S
La24   O43     2.670   .     S
La24   O44     2.781   .     S
La24   O51     2.334   .     S
La24   O146    2.660   1_455 S
La24   O56     2.809   .     S
La24   O149    2.838   1_455 S
P25    O27     1.536   .     S
P25    O28     1.546   .     S
P25    O29     1.539   .     S
P25    C30     1.807   .     S
P26    O35     1.531   .     S
P26    O36     1.554   1_554 S
P26    O37     1.537   .     S
P26    C38     1.808   .     S
O28    La47    2.334   .     S
C30    O31     1.390   .     S
C30    C32     1.490   .     S
O31    La139   2.660   1_455 S
C32    O33     1.275   .     S
C32    O34     1.256   .     S
O33    La47    2.809   .     S
O34    La139   2.838   1_455 S
O36    P26     1.554   1_556 S
O37    La186   2.524   1_565 S
C38    C40     1.501   1_554 S
C38    O39     1.413   1_554 S
O39    C38     1.413   1_556 S
C40    C38     1.501   1_556 S
C40    O41     1.263   .     S
C40    O42     1.265   .     S
O42    La186   2.929   1_566 S
O45    La186   2.373   .     S
O46    La186   2.833   1_556 S
La47   O50     2.388   .     S
La47   O62     2.568   .     S
La47   O64     2.764   .     S
La47   O66     2.670   .     S
La47   O67     2.781   .     S
La47   O123    2.660   .     S
La47   O126    2.838   .     S
P48    O50     1.536   1_556 S
P48    O51     1.546   .     S
P48    O52     1.539   .     S
P48    C53     1.807   .     S
P49    O58     1.531   .     S
P49    O59     1.554   .     S
P49    O60     1.537   .     S
P49    C61     1.808   .     S
O50    P48     1.536   1_554 S
C53    O54     1.390   .     S
C53    C55     1.490   .     S
O54    La116   2.660   .     S
C55    O56     1.275   .     S
C55    O57     1.256   .     S
O57    La116   2.838   .     S
O60    La185   2.524   .     S
C61    C63     1.501   .     S
C61    O62     1.413   .     S
C63    O64     1.263   .     S
C63    O65     1.265   .     S
O65    La185   2.929   .     S
O68    La185   2.373   .     S
O69    La185   2.833   .     S
La70   O73     2.388   .     S
La70   O85     2.568   .     S
La70   O87     2.764   .     S
La70   O89     2.670   .     S
La70   O90     2.781   .     S
La70   O100    2.660   1_655 S
La70   O103    2.838   1_655 S
P71    O73     1.536   .     S
P71    O74     1.546   .     S
P71    O75     1.539   .     S
P71    C76     1.807   .     S
P72    O81     1.531   .     S
P72    O82     1.554   1_554 S
P72    O83     1.537   .     S
P72    C84     1.808   .     S
C76    O77     1.390   .     S
C76    C78     1.490   .     S
O77    La93    2.660   1_655 S
C78    O79     1.275   .     S
C78    O80     1.256   .     S
O80    La93    2.838   1_655 S
O82    P72     1.554   1_556 S
O83    La186   2.524   1_655 S
C84    C86     1.501   1_554 S
C84    O85     1.413   1_554 S
O85    C84     1.413   1_556 S
C86    C84     1.501   1_556 S
C86    O87     1.263   .     S
C86    O88     1.265   .     S
O88    La186   2.929   1_656 S
O91    La186   2.373   1_665 S
O92    La186   2.833   1_666 S
La93   O96     2.388   .     S
La93   O108    2.568   .     S
La93   O110    2.764   .     S
La93   O112    2.670   .     S
La93   O113    2.781   .     S
La93   O166    2.334   .     S
La93   O77     2.660   1_455 S
La93   O171    2.809   .     S
La93   O80     2.838   1_455 S
P94    O96     1.536   1_556 S
P94    O97     1.546   .     S
P94    O98     1.539   .     S
P94    C99     1.807   .     S
P95    O104    1.531   .     S
P95    O105    1.554   .     S
P95    O106    1.537   .     S
P95    C107    1.808   .     S
O96    P94     1.536   1_554 S
O97    La162   2.334   .     S
C99    O100    1.390   .     S
C99    C101    1.490   .     S
O100   La70    2.660   1_455 S
C101   O102    1.275   .     S
C101   O103    1.256   .     S
O102   La162   2.809   .     S
O103   La70    2.838   1_455 S
O106   La187   2.524   .     S
C107   C109    1.501   .     S
C107   O108    1.413   .     S
C109   O110    1.263   .     S
C109   O111    1.265   .     S
O111   La187   2.929   .     S
O114   La187   2.373   1_565 S
O115   La187   2.833   1_565 S
La116  O119    2.388   .     S
La116  O131    2.568   .     S
La116  O133    2.764   .     S
La116  O135    2.670   .     S
La116  O136    2.781   .     S
La116  O143    2.334   .     S
La116  O148    2.809   .     S
P117   O119    1.536   .     S
P117   O120    1.546   .     S
P117   O121    1.539   .     S
P117   C122    1.807   .     S
P118   O127    1.531   .     S
P118   O128    1.554   1_554 S
P118   O129    1.537   .     S
P118   C130    1.808   .     S
O120   La139   2.334   .     S
C122   O123    1.390   .     S
C122   C124    1.490   .     S
C124   O125    1.275   .     S
C124   O126    1.256   .     S
O125   La139   2.809   .     S
O128   P118    1.554   1_556 S
O129   La188   2.524   .     S
C130   C132    1.501   1_554 S
C130   O131    1.413   1_554 S
O131   C130    1.413   1_556 S
C132   C130    1.501   1_556 S
C132   O133    1.263   .     S
C132   O134    1.265   .     S
O134   La188   2.929   1_556 S
O137   La188   2.373   .     S
O138   La188   2.833   1_556 S
La139  O142    2.388   .     S
La139  O154    2.568   .     S
La139  O156    2.764   .     S
La139  O158    2.670   .     S
La139  O159    2.781   .     S
La139  O31     2.660   1_655 S
La139  O34     2.838   1_655 S
P140   O142    1.536   1_556 S
P140   O143    1.546   .     S
P140   O144    1.539   .     S
P140   C145    1.807   .     S
P141   O150    1.531   .     S
P141   O151    1.554   .     S
P141   O152    1.537   .     S
P141   C153    1.808   .     S
O142   P140    1.536   1_554 S
C145   O146    1.390   .     S
C145   C147    1.490   .     S
O146   La24    2.660   1_655 S
C147   O148    1.275   .     S
C147   O149    1.256   .     S
O149   La24    2.838   1_655 S
O152   La187   2.524   1_665 S
C153   C155    1.501   .     S
C153   O154    1.413   .     S
C155   O156    1.263   .     S
C155   O157    1.265   .     S
O157   La187   2.929   1_665 S
O160   La187   2.373   1_655 S
O161   La187   2.833   1_655 S
La162  O165    2.388   .     S
La162  O177    2.568   .     S
La162  O179    2.764   .     S
La162  O181    2.670   .     S
La162  O182    2.781   .     S
P163   O165    1.536   .     S
P163   O166    1.546   .     S
P163   O167    1.539   .     S
P163   C168    1.807   .     S
P164   O173    1.531   .     S
P164   O174    1.554   1_554 S
P164   O175    1.537   .     S
P164   C176    1.808   .     S
C168   O169    1.390   .     S
C168   C170    1.490   .     S
C170   O171    1.275   .     S
C170   O172    1.256   .     S
O174   P164    1.554   1_556 S
O175   La188   2.524   .     S
C176   C178    1.501   1_554 S
C176   O177    1.413   1_554 S
O177   C176    1.413   1_556 S
C178   C176    1.501   1_556 S
C178   O179    1.263   .     S
C178   O180    1.265   .     S
O180   La188   2.929   1_556 S
O183   La188   2.373   .     S
O184   La188   2.833   1_556 S
La186  O37     2.524   1_545 S
La186  O83     2.524   1_455 S
La186  O42     2.929   1_544 S
La186  O88     2.929   1_454 S
La186  O91     2.373   1_445 S
La186  O46     2.833   1_554 S
La186  O92     2.833   1_444 S
La187  O152    2.524   1_445 S
La187  O157    2.929   1_445 S
La187  O114    2.373   1_545 S
La187  O160    2.373   1_455 S
La187  O115    2.833   1_545 S
La187  O161    2.833   1_455 S
La188  O134    2.929   1_554 S
La188  O180    2.929   1_554 S
La188  O138    2.833   1_554 S
La188  O184    2.833   1_554 S
