data_NIBXUT_FSR
_audit_creation_date              2024-06-11
_audit_creation_method            'Materials Studio'
_symmetry_space_group_name_H-M    'P1'
_symmetry_Int_Tables_number       1
_symmetry_cell_setting            triclinic
loop_
_symmetry_equiv_pos_as_xyz
  x,y,z
_cell_length_a                    13.0433
_cell_length_b                    25.7014
_cell_length_c                    11.0757
_cell_angle_alpha                 90.0000
_cell_angle_beta                  90.0000
_cell_angle_gamma                 90.0000
loop_
_atom_site_label
_atom_site_type_symbol
_atom_site_fract_x
_atom_site_fract_y
_atom_site_fract_z
_atom_site_U_iso_or_equiv
_atom_site_adp_type
_atom_site_occupancy
Gd1    Gd    0.34297   0.78122   0.02059   0.00612  Uani   1.00
P2     P     0.18856   0.69604   0.84725   0.00803  Uani   1.00
O3     O     0.29110   0.71915   0.87850   0.00837  Uani   1.00
O4     O     0.17240   0.64054   0.90130   0.01423  Uani   1.00
O5     O     0.16220   0.69278   0.71670   0.01067  Uani   1.00
C6     C     0.09270   0.73830   0.91820   0.01000  Uani   1.00
H7     H     0.10940   0.77540   0.89940   0.01200  Uiso   1.00
O8     O     0.99140   0.72726   0.87790   0.01090  Uani   1.00
H9     H     0.99160   0.72510   0.80480   0.01600  Uiso   1.00
C10    C     0.09830   0.73011   0.05490   0.01033  Uani   1.00
O11    O     0.18530   0.73552   0.10270   0.01033  Uani   1.00
O12    O     0.01730   0.71891   0.11070   0.00937  Uani   1.00
P13    P     0.29826   0.91835   0.68901   0.01147  Uani   1.00
O14    O     0.38220   0.95379   0.64190   0.01253  Uani   1.00
O15    O     0.22050   0.94952   0.76560   0.01720  Uani   1.00
O16    O     0.24220   0.88759   0.59200   0.01297  Uani   1.00
C17    C     0.36520   0.87055   0.78420   0.01067  Uani   1.00
H18    H     0.42630   0.85850   0.73740   0.01200  Uiso   1.00
O19    O     0.30730   0.82488   0.81450   0.01077  Uani   1.00
H20    H     0.31410   0.80770   0.75200   0.01600  Uiso   1.00
C21    C     0.40590   0.89520   0.90110   0.01133  Uani   1.00
O22    O     0.44230   0.93961   0.89560   0.01530  Uani   1.00
O23    O     0.39890   0.86844   0.99650   0.01137  Uani   1.00
O24    O     0.39050   0.69734   0.10650   0.01567  Uani   1.00
O25    O     0.19100   0.83909   0.03400   0.01753  Uani   1.00
O26    O     0.59520   0.92009   0.71010   0.01957  Uani   1.00
O27    O     0.63240   0.98844   0.90850   0.02050  Uani   1.00
Gd28   Gd    0.15703   0.71878   0.52059   0.00612  Uani   1.00
P29    P     0.31144   0.80396   0.34725   0.00803  Uani   1.00
O30    O     0.20890   0.78085   0.37850   0.00837  Uani   1.00
O31    O     0.32760   0.85946   0.40130   0.01423  Uani   1.00
O32    O     0.33780   0.80722   0.21670   0.01067  Uani   1.00
C33    C     0.40730   0.76170   0.41820   0.01000  Uani   1.00
H34    H     0.39060   0.72460   0.39940   0.01200  Uiso   1.00
O35    O     0.50860   0.77274   0.37790   0.01090  Uani   1.00
H36    H     0.50840   0.77490   0.30480   0.01600  Uiso   1.00
C37    C     0.40170   0.76989   0.55490   0.01033  Uani   1.00
O38    O     0.31470   0.76448   0.60270   0.01033  Uani   1.00
O39    O     0.48270   0.78109   0.61070   0.00937  Uani   1.00
P40    P     0.20174   0.58165   0.18901   0.01147  Uani   1.00
O41    O     0.11780   0.54621   0.14190   0.01253  Uani   1.00
O42    O     0.27950   0.55048   0.26560   0.01720  Uani   1.00
O43    O     0.25780   0.61241   0.09200   0.01297  Uani   1.00
C44    C     0.13480   0.62945   0.28420   0.01067  Uani   1.00
H45    H     0.07370   0.64150   0.23740   0.01200  Uiso   1.00
O46    O     0.19270   0.67512   0.31450   0.01077  Uani   1.00
H47    H     0.18590   0.69230   0.25200   0.01600  Uiso   1.00
C48    C     0.09410   0.60480   0.40110   0.01133  Uani   1.00
O49    O     0.05770   0.56039   0.39560   0.01530  Uani   1.00
O50    O     0.10110   0.63156   0.49650   0.01137  Uani   1.00
O51    O     0.10950   0.80266   0.60650   0.01567  Uani   1.00
O52    O     0.30900   0.66091   0.53400   0.01753  Uani   1.00
O53    O     0.90480   0.57991   0.21010   0.01957  Uani   1.00
O54    O     0.86760   0.51156   0.40850   0.02050  Uani   1.00
Gd55   Gd    0.34297   0.21878   0.47942   0.00612  Uani   1.00
P56    P     0.18856   0.30396   0.65275   0.00803  Uani   1.00
O57    O     0.29110   0.28085   0.62150   0.00837  Uani   1.00
O58    O     0.17240   0.35946   0.59870   0.01423  Uani   1.00
O59    O     0.16220   0.30722   0.78330   0.01067  Uani   1.00
C60    C     0.09270   0.26170   0.58180   0.01000  Uani   1.00
H61    H     0.10940   0.22460   0.60060   0.01200  Uiso   1.00
O62    O     0.99140   0.27274   0.62210   0.01090  Uani   1.00
H63    H     0.99160   0.27490   0.69520   0.01600  Uiso   1.00
C64    C     0.09830   0.26989   0.44510   0.01033  Uani   1.00
O65    O     0.18530   0.26448   0.39730   0.01033  Uani   1.00
O66    O     0.01730   0.28109   0.38930   0.00937  Uani   1.00
P67    P     0.29826   0.08165   0.81099   0.01147  Uani   1.00
O68    O     0.38220   0.04621   0.85810   0.01253  Uani   1.00
O69    O     0.22050   0.05048   0.73440   0.01720  Uani   1.00
O70    O     0.24220   0.11241   0.90800   0.01297  Uani   1.00
C71    C     0.36520   0.12945   0.71580   0.01067  Uani   1.00
H72    H     0.42630   0.14150   0.76260   0.01200  Uiso   1.00
O73    O     0.30730   0.17512   0.68550   0.01077  Uani   1.00
H74    H     0.31410   0.19230   0.74800   0.01600  Uiso   1.00
C75    C     0.40590   0.10480   0.59890   0.01133  Uani   1.00
O76    O     0.44230   0.06039   0.60440   0.01530  Uani   1.00
O77    O     0.39890   0.13156   0.50350   0.01137  Uani   1.00
O78    O     0.39050   0.30266   0.39350   0.01567  Uani   1.00
O79    O     0.19100   0.16091   0.46600   0.01753  Uani   1.00
O80    O     0.59520   0.07991   0.78990   0.01957  Uani   1.00
O81    O     0.63240   0.01156   0.59150   0.02050  Uani   1.00
Gd82   Gd    0.15703   0.28122   0.97942   0.00612  Uani   1.00
P83    P     0.31144   0.19604   0.15275   0.00803  Uani   1.00
O84    O     0.20890   0.21915   0.12150   0.00837  Uani   1.00
O85    O     0.32760   0.14054   0.09870   0.01423  Uani   1.00
O86    O     0.33780   0.19278   0.28330   0.01067  Uani   1.00
C87    C     0.40730   0.23830   0.08180   0.01000  Uani   1.00
H88    H     0.39060   0.27540   0.10060   0.01200  Uiso   1.00
O89    O     0.50860   0.22726   0.12210   0.01090  Uani   1.00
H90    H     0.50840   0.22510   0.19520   0.01600  Uiso   1.00
C91    C     0.40170   0.23011   0.94510   0.01033  Uani   1.00
O92    O     0.31470   0.23552   0.89730   0.01033  Uani   1.00
O93    O     0.48270   0.21891   0.88930   0.00937  Uani   1.00
P94    P     0.20174   0.41835   0.31099   0.01147  Uani   1.00
O95    O     0.11780   0.45379   0.35810   0.01253  Uani   1.00
O96    O     0.27950   0.44952   0.23440   0.01720  Uani   1.00
O97    O     0.25780   0.38759   0.40800   0.01297  Uani   1.00
C98    C     0.13480   0.37055   0.21580   0.01067  Uani   1.00
H99    H     0.07370   0.35850   0.26260   0.01200  Uiso   1.00
O100   O     0.19270   0.32488   0.18550   0.01077  Uani   1.00
H101   H     0.18590   0.30770   0.24800   0.01600  Uiso   1.00
C102   C     0.09410   0.39520   0.09890   0.01133  Uani   1.00
O103   O     0.05770   0.43961   0.10440   0.01530  Uani   1.00
O104   O     0.10110   0.36844   0.00350   0.01137  Uani   1.00
O105   O     0.10950   0.19734   0.89350   0.01567  Uani   1.00
O106   O     0.30900   0.33909   0.96600   0.01753  Uani   1.00
O107   O     0.90480   0.42009   0.28990   0.01957  Uani   1.00
O108   O     0.86760   0.48844   0.09150   0.02050  Uani   1.00
Gd109  Gd    0.65703   0.21878   0.97942   0.00612  Uani   1.00
P110   P     0.81144   0.30396   0.15275   0.00803  Uani   1.00
O111   O     0.70890   0.28085   0.12150   0.00837  Uani   1.00
O112   O     0.82760   0.35946   0.09870   0.01423  Uani   1.00
O113   O     0.83780   0.30722   0.28330   0.01067  Uani   1.00
C114   C     0.90730   0.26170   0.08180   0.01000  Uani   1.00
H115   H     0.89060   0.22460   0.10060   0.01200  Uiso   1.00
O116   O     0.00860   0.27274   0.12210   0.01090  Uani   1.00
H117   H     0.00840   0.27490   0.19520   0.01600  Uiso   1.00
C118   C     0.90170   0.26989   0.94510   0.01033  Uani   1.00
O119   O     0.81470   0.26448   0.89730   0.01033  Uani   1.00
O120   O     0.98270   0.28109   0.88930   0.00937  Uani   1.00
P121   P     0.70174   0.08165   0.31099   0.01147  Uani   1.00
O122   O     0.61780   0.04621   0.35810   0.01253  Uani   1.00
O123   O     0.77950   0.05048   0.23440   0.01720  Uani   1.00
O124   O     0.75780   0.11241   0.40800   0.01297  Uani   1.00
C125   C     0.63480   0.12945   0.21580   0.01067  Uani   1.00
H126   H     0.57370   0.14150   0.26260   0.01200  Uiso   1.00
O127   O     0.69270   0.17512   0.18550   0.01077  Uani   1.00
H128   H     0.68590   0.19230   0.24800   0.01600  Uiso   1.00
C129   C     0.59410   0.10480   0.09890   0.01133  Uani   1.00
O130   O     0.55770   0.06039   0.10440   0.01530  Uani   1.00
O131   O     0.60110   0.13156   0.00350   0.01137  Uani   1.00
O132   O     0.60950   0.30266   0.89350   0.01567  Uani   1.00
O133   O     0.80900   0.16091   0.96600   0.01753  Uani   1.00
O134   O     0.40480   0.07991   0.28990   0.01957  Uani   1.00
O135   O     0.36760   0.01156   0.09150   0.02050  Uani   1.00
Gd136  Gd    0.84297   0.28122   0.47942   0.00612  Uani   1.00
P137   P     0.68856   0.19604   0.65275   0.00803  Uani   1.00
O138   O     0.79110   0.21915   0.62150   0.00837  Uani   1.00
O139   O     0.67240   0.14054   0.59870   0.01423  Uani   1.00
O140   O     0.66220   0.19278   0.78330   0.01067  Uani   1.00
C141   C     0.59270   0.23830   0.58180   0.01000  Uani   1.00
H142   H     0.60940   0.27540   0.60060   0.01200  Uiso   1.00
O143   O     0.49140   0.22726   0.62210   0.01090  Uani   1.00
H144   H     0.49160   0.22510   0.69520   0.01600  Uiso   1.00
C145   C     0.59830   0.23011   0.44510   0.01033  Uani   1.00
O146   O     0.68530   0.23552   0.39730   0.01033  Uani   1.00
O147   O     0.51730   0.21891   0.38930   0.00937  Uani   1.00
P148   P     0.79826   0.41835   0.81099   0.01147  Uani   1.00
O149   O     0.88220   0.45379   0.85810   0.01253  Uani   1.00
O150   O     0.72050   0.44952   0.73440   0.01720  Uani   1.00
O151   O     0.74220   0.38759   0.90800   0.01297  Uani   1.00
C152   C     0.86520   0.37055   0.71580   0.01067  Uani   1.00
H153   H     0.92630   0.35850   0.76260   0.01200  Uiso   1.00
O154   O     0.80730   0.32488   0.68550   0.01077  Uani   1.00
H155   H     0.81410   0.30770   0.74800   0.01600  Uiso   1.00
C156   C     0.90590   0.39520   0.59890   0.01133  Uani   1.00
O157   O     0.94230   0.43961   0.60440   0.01530  Uani   1.00
O158   O     0.89890   0.36844   0.50350   0.01137  Uani   1.00
O159   O     0.89050   0.19734   0.39350   0.01567  Uani   1.00
O160   O     0.69100   0.33909   0.46600   0.01753  Uani   1.00
O161   O     0.09520   0.42009   0.78990   0.01957  Uani   1.00
O162   O     0.13240   0.48844   0.59150   0.02050  Uani   1.00
Gd163  Gd    0.65703   0.78122   0.52059   0.00612  Uani   1.00
P164   P     0.81144   0.69604   0.34725   0.00803  Uani   1.00
O165   O     0.70890   0.71915   0.37850   0.00837  Uani   1.00
O166   O     0.82760   0.64054   0.40130   0.01423  Uani   1.00
O167   O     0.83780   0.69278   0.21670   0.01067  Uani   1.00
C168   C     0.90730   0.73830   0.41820   0.01000  Uani   1.00
H169   H     0.89060   0.77540   0.39940   0.01200  Uiso   1.00
O170   O     0.00860   0.72726   0.37790   0.01090  Uani   1.00
H171   H     0.00840   0.72510   0.30480   0.01600  Uiso   1.00
C172   C     0.90170   0.73011   0.55490   0.01033  Uani   1.00
O173   O     0.81470   0.73552   0.60270   0.01033  Uani   1.00
O174   O     0.98270   0.71891   0.61070   0.00937  Uani   1.00
P175   P     0.70174   0.91835   0.18901   0.01147  Uani   1.00
O176   O     0.61780   0.95379   0.14190   0.01253  Uani   1.00
O177   O     0.77950   0.94952   0.26560   0.01720  Uani   1.00
O178   O     0.75780   0.88759   0.09200   0.01297  Uani   1.00
C179   C     0.63480   0.87055   0.28420   0.01067  Uani   1.00
H180   H     0.57370   0.85850   0.23740   0.01200  Uiso   1.00
O181   O     0.69270   0.82488   0.31450   0.01077  Uani   1.00
H182   H     0.68590   0.80770   0.25200   0.01600  Uiso   1.00
C183   C     0.59410   0.89520   0.40110   0.01133  Uani   1.00
O184   O     0.55770   0.93961   0.39560   0.01530  Uani   1.00
O185   O     0.60110   0.86844   0.49650   0.01137  Uani   1.00
O186   O     0.60950   0.69734   0.60650   0.01567  Uani   1.00
O187   O     0.80900   0.83909   0.53400   0.01753  Uani   1.00
O188   O     0.40480   0.92009   0.21010   0.01957  Uani   1.00
O189   O     0.36760   0.98844   0.40850   0.02050  Uani   1.00
Gd190  Gd    0.84297   0.71878   0.02059   0.00612  Uani   1.00
P191   P     0.68856   0.80396   0.84725   0.00803  Uani   1.00
O192   O     0.79110   0.78085   0.87850   0.00837  Uani   1.00
O193   O     0.67240   0.85946   0.90130   0.01423  Uani   1.00
O194   O     0.66220   0.80722   0.71670   0.01067  Uani   1.00
C195   C     0.59270   0.76170   0.91820   0.01000  Uani   1.00
H196   H     0.60940   0.72460   0.89940   0.01200  Uiso   1.00
O197   O     0.49140   0.77274   0.87790   0.01090  Uani   1.00
H198   H     0.49160   0.77490   0.80480   0.01600  Uiso   1.00
C199   C     0.59830   0.76989   0.05490   0.01033  Uani   1.00
O200   O     0.68530   0.76448   0.10270   0.01033  Uani   1.00
O201   O     0.51730   0.78109   0.11070   0.00937  Uani   1.00
P202   P     0.79826   0.58165   0.68901   0.01147  Uani   1.00
O203   O     0.88220   0.54621   0.64190   0.01253  Uani   1.00
O204   O     0.72050   0.55048   0.76560   0.01720  Uani   1.00
O205   O     0.74220   0.61241   0.59200   0.01297  Uani   1.00
C206   C     0.86520   0.62945   0.78420   0.01067  Uani   1.00
H207   H     0.92630   0.64150   0.73740   0.01200  Uiso   1.00
O208   O     0.80730   0.67512   0.81450   0.01077  Uani   1.00
H209   H     0.81410   0.69230   0.75200   0.01600  Uiso   1.00
C210   C     0.90590   0.60480   0.90110   0.01133  Uani   1.00
O211   O     0.94230   0.56039   0.89560   0.01530  Uani   1.00
O212   O     0.89890   0.63156   0.99650   0.01137  Uani   1.00
O213   O     0.89050   0.80266   0.10650   0.01567  Uani   1.00
O214   O     0.69100   0.66091   0.03400   0.01753  Uani   1.00
O215   O     0.09520   0.57991   0.71010   0.01957  Uani   1.00
O216   O     0.13240   0.51156   0.90850   0.02050  Uani   1.00
Gd217  Gd    0.50787   0.00000   0.75000   0.01077  Uani   1.00
Gd218  Gd    0.99213   0.50000   0.25000   0.01077  Uani   1.00
Gd219  Gd    0.49213   0.00000   0.25000   0.01077  Uani   1.00
Gd220  Gd    0.00787   0.50000   0.75000   0.01077  Uani   1.00
loop_
_atom_site_aniso_label
_atom_site_aniso_U_11
_atom_site_aniso_U_22
_atom_site_aniso_U_33
_atom_site_aniso_U_12
_atom_site_aniso_U_13
_atom_site_aniso_U_23
Gd1       0.00640   0.00800   0.00396  -0.00092  -0.00010   0.00030
P2        0.00850   0.01010   0.00550  -0.00210  -0.00070   0.00050
O3        0.00860   0.00920   0.00730  -0.00200   0.00140  -0.00310
O4        0.01810   0.01190   0.01270  -0.00530  -0.00270   0.00150
O5        0.01310   0.01290   0.00600  -0.00080  -0.00100  -0.00070
C6        0.00600   0.01400   0.01000  -0.00090  -0.00140   0.00220
O8        0.00740   0.02050   0.00480  -0.00100  -0.00090   0.00080
C10       0.01600   0.00800   0.00700  -0.00160  -0.00100  -0.00120
O11       0.00730   0.01670   0.00700  -0.00010   0.00020  -0.00220
O12       0.00840   0.01250   0.00720   0.00060   0.00100  -0.00010
P13       0.01690   0.01020   0.00730   0.00030  -0.00150  -0.00040
O14       0.01910   0.00800   0.01050   0.00010  -0.00310   0.00160
O15       0.01990   0.01760   0.01410   0.00020   0.00180  -0.00390
O16       0.01530   0.01420   0.00940  -0.00190  -0.00150  -0.00070
C17       0.01500   0.00700   0.01000  -0.00290   0.00070   0.00120
O19       0.01780   0.00890   0.00560  -0.00430  -0.00140   0.00060
C21       0.01200   0.01300   0.00900   0.00000  -0.00180   0.00010
O22       0.02600   0.01080   0.00910  -0.00640  -0.00340   0.00210
O23       0.01890   0.00840   0.00680  -0.00520   0.00010   0.00060
O24       0.01440   0.01110   0.02150  -0.00060  -0.00720   0.00450
O25       0.01370   0.02410   0.01480   0.00390  -0.00050   0.00200
O26       0.03400   0.01320   0.01150   0.00500   0.00160   0.00090
O27       0.02700   0.02240   0.01210  -0.00510  -0.00450   0.00440
Gd28      0.00640   0.00800   0.00396  -0.00092   0.00010  -0.00030
P29       0.00850   0.01010   0.00550  -0.00210   0.00070  -0.00050
O30       0.00860   0.00920   0.00730  -0.00200  -0.00140   0.00310
O31       0.01810   0.01190   0.01270  -0.00530   0.00270  -0.00150
O32       0.01310   0.01290   0.00600  -0.00080   0.00100   0.00070
C33       0.00600   0.01400   0.01000  -0.00090   0.00140  -0.00220
O35       0.00740   0.02050   0.00480  -0.00100   0.00090  -0.00080
C37       0.01600   0.00800   0.00700  -0.00160   0.00100   0.00120
O38       0.00730   0.01670   0.00700  -0.00010  -0.00020   0.00220
O39       0.00840   0.01250   0.00720   0.00060  -0.00100   0.00010
P40       0.01690   0.01020   0.00730   0.00030   0.00150   0.00040
O41       0.01910   0.00800   0.01050   0.00010   0.00310  -0.00160
O42       0.01990   0.01760   0.01410   0.00020  -0.00180   0.00390
O43       0.01530   0.01420   0.00940  -0.00190   0.00150   0.00070
C44       0.01500   0.00700   0.01000  -0.00290  -0.00070  -0.00120
O46       0.01780   0.00890   0.00560  -0.00430   0.00140  -0.00060
C48       0.01200   0.01300   0.00900   0.00000   0.00180  -0.00010
O49       0.02600   0.01080   0.00910  -0.00640   0.00340  -0.00210
O50       0.01890   0.00840   0.00680  -0.00520  -0.00010  -0.00060
O51       0.01440   0.01110   0.02150  -0.00060   0.00720  -0.00450
O52       0.01370   0.02410   0.01480   0.00390   0.00050  -0.00200
O53       0.03400   0.01320   0.01150   0.00500  -0.00160  -0.00090
O54       0.02700   0.02240   0.01210  -0.00510   0.00450  -0.00440
Gd55      0.00640   0.00800   0.00396   0.00092   0.00010   0.00030
P56       0.00850   0.01010   0.00550   0.00210   0.00070   0.00050
O57       0.00860   0.00920   0.00730   0.00200  -0.00140  -0.00310
O58       0.01810   0.01190   0.01270   0.00530   0.00270   0.00150
O59       0.01310   0.01290   0.00600   0.00080   0.00100  -0.00070
C60       0.00600   0.01400   0.01000   0.00090   0.00140   0.00220
O62       0.00740   0.02050   0.00480   0.00100   0.00090   0.00080
C64       0.01600   0.00800   0.00700   0.00160   0.00100  -0.00120
O65       0.00730   0.01670   0.00700   0.00010  -0.00020  -0.00220
O66       0.00840   0.01250   0.00720  -0.00060  -0.00100  -0.00010
P67       0.01690   0.01020   0.00730  -0.00030   0.00150  -0.00040
O68       0.01910   0.00800   0.01050  -0.00010   0.00310   0.00160
O69       0.01990   0.01760   0.01410  -0.00020  -0.00180  -0.00390
O70       0.01530   0.01420   0.00940   0.00190   0.00150  -0.00070
C71       0.01500   0.00700   0.01000   0.00290  -0.00070   0.00120
O73       0.01780   0.00890   0.00560   0.00430   0.00140   0.00060
C75       0.01200   0.01300   0.00900   0.00000   0.00180   0.00010
O76       0.02600   0.01080   0.00910   0.00640   0.00340   0.00210
O77       0.01890   0.00840   0.00680   0.00520  -0.00010   0.00060
O78       0.01440   0.01110   0.02150   0.00060   0.00720   0.00450
O79       0.01370   0.02410   0.01480  -0.00390   0.00050   0.00200
O80       0.03400   0.01320   0.01150  -0.00500  -0.00160   0.00090
O81       0.02700   0.02240   0.01210   0.00510   0.00450   0.00440
Gd82      0.00640   0.00800   0.00396   0.00092  -0.00010  -0.00030
P83       0.00850   0.01010   0.00550   0.00210  -0.00070  -0.00050
O84       0.00860   0.00920   0.00730   0.00200   0.00140   0.00310
O85       0.01810   0.01190   0.01270   0.00530  -0.00270  -0.00150
O86       0.01310   0.01290   0.00600   0.00080  -0.00100   0.00070
C87       0.00600   0.01400   0.01000   0.00090  -0.00140  -0.00220
O89       0.00740   0.02050   0.00480   0.00100  -0.00090  -0.00080
C91       0.01600   0.00800   0.00700   0.00160  -0.00100   0.00120
O92       0.00730   0.01670   0.00700   0.00010   0.00020   0.00220
O93       0.00840   0.01250   0.00720  -0.00060   0.00100   0.00010
P94       0.01690   0.01020   0.00730  -0.00030  -0.00150   0.00040
O95       0.01910   0.00800   0.01050  -0.00010  -0.00310  -0.00160
O96       0.01990   0.01760   0.01410  -0.00020   0.00180   0.00390
O97       0.01530   0.01420   0.00940   0.00190  -0.00150   0.00070
C98       0.01500   0.00700   0.01000   0.00290   0.00070  -0.00120
O100      0.01780   0.00890   0.00560   0.00430  -0.00140  -0.00060
C102      0.01200   0.01300   0.00900   0.00000  -0.00180  -0.00010
O103      0.02600   0.01080   0.00910   0.00640  -0.00340  -0.00210
O104      0.01890   0.00840   0.00680   0.00520   0.00010  -0.00060
O105      0.01440   0.01110   0.02150   0.00060  -0.00720  -0.00450
O106      0.01370   0.02410   0.01480  -0.00390  -0.00050  -0.00200
O107      0.03400   0.01320   0.01150  -0.00500   0.00160  -0.00090
O108      0.02700   0.02240   0.01210   0.00510  -0.00450  -0.00440
Gd109     0.00640   0.00800   0.00396  -0.00092  -0.00010   0.00030
P110      0.00850   0.01010   0.00550  -0.00210  -0.00070   0.00050
O111      0.00860   0.00920   0.00730  -0.00200   0.00140  -0.00310
O112      0.01810   0.01190   0.01270  -0.00530  -0.00270   0.00150
O113      0.01310   0.01290   0.00600  -0.00080  -0.00100  -0.00070
C114      0.00600   0.01400   0.01000  -0.00090  -0.00140   0.00220
O116      0.00740   0.02050   0.00480  -0.00100  -0.00090   0.00080
C118      0.01600   0.00800   0.00700  -0.00160  -0.00100  -0.00120
O119      0.00730   0.01670   0.00700  -0.00010   0.00020  -0.00220
O120      0.00840   0.01250   0.00720   0.00060   0.00100  -0.00010
P121      0.01690   0.01020   0.00730   0.00030  -0.00150  -0.00040
O122      0.01910   0.00800   0.01050   0.00010  -0.00310   0.00160
O123      0.01990   0.01760   0.01410   0.00020   0.00180  -0.00390
O124      0.01530   0.01420   0.00940  -0.00190  -0.00150  -0.00070
C125      0.01500   0.00700   0.01000  -0.00290   0.00070   0.00120
O127      0.01780   0.00890   0.00560  -0.00430  -0.00140   0.00060
C129      0.01200   0.01300   0.00900   0.00000  -0.00180   0.00010
O130      0.02600   0.01080   0.00910  -0.00640  -0.00340   0.00210
O131      0.01890   0.00840   0.00680  -0.00520   0.00010   0.00060
O132      0.01440   0.01110   0.02150  -0.00060  -0.00720   0.00450
O133      0.01370   0.02410   0.01480   0.00390  -0.00050   0.00200
O134      0.03400   0.01320   0.01150   0.00500   0.00160   0.00090
O135      0.02700   0.02240   0.01210  -0.00510  -0.00450   0.00440
Gd136     0.00640   0.00800   0.00396  -0.00092   0.00010  -0.00030
P137      0.00850   0.01010   0.00550  -0.00210   0.00070  -0.00050
O138      0.00860   0.00920   0.00730  -0.00200  -0.00140   0.00310
O139      0.01810   0.01190   0.01270  -0.00530   0.00270  -0.00150
O140      0.01310   0.01290   0.00600  -0.00080   0.00100   0.00070
C141      0.00600   0.01400   0.01000  -0.00090   0.00140  -0.00220
O143      0.00740   0.02050   0.00480  -0.00100   0.00090  -0.00080
C145      0.01600   0.00800   0.00700  -0.00160   0.00100   0.00120
O146      0.00730   0.01670   0.00700  -0.00010  -0.00020   0.00220
O147      0.00840   0.01250   0.00720   0.00060  -0.00100   0.00010
P148      0.01690   0.01020   0.00730   0.00030   0.00150   0.00040
O149      0.01910   0.00800   0.01050   0.00010   0.00310  -0.00160
O150      0.01990   0.01760   0.01410   0.00020  -0.00180   0.00390
O151      0.01530   0.01420   0.00940  -0.00190   0.00150   0.00070
C152      0.01500   0.00700   0.01000  -0.00290  -0.00070  -0.00120
O154      0.01780   0.00890   0.00560  -0.00430   0.00140  -0.00060
C156      0.01200   0.01300   0.00900   0.00000   0.00180  -0.00010
O157      0.02600   0.01080   0.00910  -0.00640   0.00340  -0.00210
O158      0.01890   0.00840   0.00680  -0.00520  -0.00010  -0.00060
O159      0.01440   0.01110   0.02150  -0.00060   0.00720  -0.00450
O160      0.01370   0.02410   0.01480   0.00390   0.00050  -0.00200
O161      0.03400   0.01320   0.01150   0.00500  -0.00160  -0.00090
O162      0.02700   0.02240   0.01210  -0.00510   0.00450  -0.00440
Gd163     0.00640   0.00800   0.00396   0.00092   0.00010   0.00030
P164      0.00850   0.01010   0.00550   0.00210   0.00070   0.00050
O165      0.00860   0.00920   0.00730   0.00200  -0.00140  -0.00310
O166      0.01810   0.01190   0.01270   0.00530   0.00270   0.00150
O167      0.01310   0.01290   0.00600   0.00080   0.00100  -0.00070
C168      0.00600   0.01400   0.01000   0.00090   0.00140   0.00220
O170      0.00740   0.02050   0.00480   0.00100   0.00090   0.00080
C172      0.01600   0.00800   0.00700   0.00160   0.00100  -0.00120
O173      0.00730   0.01670   0.00700   0.00010  -0.00020  -0.00220
O174      0.00840   0.01250   0.00720  -0.00060  -0.00100  -0.00010
P175      0.01690   0.01020   0.00730  -0.00030   0.00150  -0.00040
O176      0.01910   0.00800   0.01050  -0.00010   0.00310   0.00160
O177      0.01990   0.01760   0.01410  -0.00020  -0.00180  -0.00390
O178      0.01530   0.01420   0.00940   0.00190   0.00150  -0.00070
C179      0.01500   0.00700   0.01000   0.00290  -0.00070   0.00120
O181      0.01780   0.00890   0.00560   0.00430   0.00140   0.00060
C183      0.01200   0.01300   0.00900   0.00000   0.00180   0.00010
O184      0.02600   0.01080   0.00910   0.00640   0.00340   0.00210
O185      0.01890   0.00840   0.00680   0.00520  -0.00010   0.00060
O186      0.01440   0.01110   0.02150   0.00060   0.00720   0.00450
O187      0.01370   0.02410   0.01480  -0.00390   0.00050   0.00200
O188      0.03400   0.01320   0.01150  -0.00500  -0.00160   0.00090
O189      0.02700   0.02240   0.01210   0.00510   0.00450   0.00440
Gd190     0.00640   0.00800   0.00396   0.00092  -0.00010  -0.00030
P191      0.00850   0.01010   0.00550   0.00210  -0.00070  -0.00050
O192      0.00860   0.00920   0.00730   0.00200   0.00140   0.00310
O193      0.01810   0.01190   0.01270   0.00530  -0.00270  -0.00150
O194      0.01310   0.01290   0.00600   0.00080  -0.00100   0.00070
C195      0.00600   0.01400   0.01000   0.00090  -0.00140  -0.00220
O197      0.00740   0.02050   0.00480   0.00100  -0.00090  -0.00080
C199      0.01600   0.00800   0.00700   0.00160  -0.00100   0.00120
O200      0.00730   0.01670   0.00700   0.00010   0.00020   0.00220
O201      0.00840   0.01250   0.00720  -0.00060   0.00100   0.00010
P202      0.01690   0.01020   0.00730  -0.00030  -0.00150   0.00040
O203      0.01910   0.00800   0.01050  -0.00010  -0.00310  -0.00160
O204      0.01990   0.01760   0.01410  -0.00020   0.00180   0.00390
O205      0.01530   0.01420   0.00940   0.00190  -0.00150   0.00070
C206      0.01500   0.00700   0.01000   0.00290   0.00070  -0.00120
O208      0.01780   0.00890   0.00560   0.00430  -0.00140  -0.00060
C210      0.01200   0.01300   0.00900   0.00000  -0.00180  -0.00010
O211      0.02600   0.01080   0.00910   0.00640  -0.00340  -0.00210
O212      0.01890   0.00840   0.00680   0.00520   0.00010  -0.00060
O213      0.01440   0.01110   0.02150   0.00060  -0.00720  -0.00450
O214      0.01370   0.02410   0.01480  -0.00390  -0.00050  -0.00200
O215      0.03400   0.01320   0.01150  -0.00500   0.00160  -0.00090
O216      0.02700   0.02240   0.01210   0.00510  -0.00450  -0.00440
Gd217     0.01685   0.00816   0.00731   0.00000   0.00000   0.00091
Gd218     0.01685   0.00816   0.00731   0.00000   0.00000  -0.00091
Gd219     0.01685   0.00816   0.00731   0.00000   0.00000   0.00091
Gd220     0.01685   0.00816   0.00731   0.00000   0.00000  -0.00091
loop_
_geom_bond_atom_site_label_1
_geom_bond_atom_site_label_2
_geom_bond_distance
_geom_bond_site_symmetry_2
_ccdc_geom_bond_type
Gd1    O3      2.341   1_554 S
Gd1    O11     2.537   .     S
Gd1    O19     2.586   1_554 S
Gd1    O23     2.373   1_554 S
Gd1    O24     2.437   .     S
Gd1    O25     2.483   .     S
Gd1    O32     2.274   .     S
Gd1    O197    2.509   1_554 S
Gd1    O201    2.483   .     S
P2     O3      1.504   .     S
P2     O4      1.561   .     S
P2     O5      1.489   .     S
P2     C6      1.833   .     S
O3     Gd1     2.341   1_556 S
O5     Gd28    2.274   .     S
C6     H7      1.000   .     S
C6     O8      1.423   1_455 S
C6     C10     1.530   1_556 S
O8     C6      1.423   1_655 S
O8     H9      0.812   .     S
O8     Gd190   2.509   1_556 S
C10    C6      1.530   1_554 S
C10    O12     1.257   .     S
C10    O11     1.260   .     S
O12    Gd190   2.483   1_455 S
P13    O14     1.517   .     S
P13    O15     1.546   .     S
P13    O16     1.521   .     S
P13    C17     1.839   .     S
O14    Gd217   2.352   1_565 S
C17    H18     1.000   .     S
C17    C21     1.536   .     S
C17    O19     1.436   .     S
O19    Gd1     2.586   1_556 S
O19    H20     0.826   .     S
C21    O22     1.238   .     S
C21    O23     1.264   .     S
O22    Gd217   2.396   1_565 S
O23    Gd1     2.373   1_556 S
O26    Gd217   2.390   1_565 S
O27    Gd217   2.410   1_565 S
Gd28   O30     2.341   .     S
Gd28   O38     2.537   .     S
Gd28   O46     2.586   .     S
Gd28   O50     2.373   .     S
Gd28   O51     2.437   .     S
Gd28   O52     2.483   .     S
Gd28   O170    2.509   .     S
Gd28   O174    2.483   1_455 S
P29    O30     1.504   .     S
P29    O31     1.561   .     S
P29    O32     1.489   .     S
P29    C33     1.833   .     S
C33    H34     1.000   .     S
C33    O35     1.423   .     S
C33    C37     1.530   .     S
O35    H36     0.812   .     S
O35    Gd163   2.509   .     S
C37    O39     1.257   .     S
C37    O38     1.260   .     S
O39    Gd163   2.483   .     S
P40    O41     1.517   .     S
P40    O42     1.546   .     S
P40    O43     1.521   .     S
P40    C44     1.839   .     S
O41    Gd218   2.352   1_455 S
C44    H45     1.000   .     S
C44    C48     1.536   .     S
C44    O46     1.436   .     S
O46    H47     0.826   .     S
C48    O49     1.238   .     S
C48    O50     1.264   .     S
O49    Gd218   2.396   1_455 S
O53    Gd218   2.390   .     S
O54    Gd218   2.410   .     S
Gd55   O57     2.341   .     S
Gd55   O65     2.537   .     S
Gd55   O73     2.586   .     S
Gd55   O77     2.373   .     S
Gd55   O78     2.437   .     S
Gd55   O79     2.483   .     S
Gd55   O86     2.274   .     S
Gd55   O143    2.509   .     S
Gd55   O147    2.483   .     S
P56    O57     1.504   .     S
P56    O58     1.561   .     S
P56    O59     1.489   .     S
P56    C60     1.833   .     S
O59    Gd82    2.274   .     S
C60    H61     1.000   .     S
C60    O62     1.423   1_455 S
C60    C64     1.530   .     S
O62    C60     1.423   1_655 S
O62    H63     0.812   .     S
O62    Gd136   2.509   .     S
C64    O66     1.257   .     S
C64    O65     1.260   .     S
O66    Gd136   2.483   1_455 S
P67    O68     1.517   .     S
P67    O69     1.546   .     S
P67    O70     1.521   .     S
P67    C71     1.839   .     S
O68    Gd217   2.352   .     S
C71    H72     1.000   .     S
C71    C75     1.536   .     S
C71    O73     1.436   .     S
O73    H74     0.826   .     S
C75    O76     1.238   .     S
C75    O77     1.264   .     S
O76    Gd217   2.396   .     S
O80    Gd217   2.390   .     S
O81    Gd217   2.410   .     S
Gd82   O84     2.341   1_556 S
Gd82   O92     2.537   .     S
Gd82   O100    2.586   1_556 S
Gd82   O104    2.373   1_556 S
Gd82   O105    2.437   .     S
Gd82   O106    2.483   .     S
Gd82   O116    2.509   1_556 S
Gd82   O120    2.483   1_455 S
P83    O84     1.504   .     S
P83    O85     1.561   .     S
P83    O86     1.489   .     S
P83    C87     1.833   .     S
O84    Gd82    2.341   1_554 S
C87    H88     1.000   .     S
C87    O89     1.423   .     S
C87    C91     1.530   1_554 S
O89    H90     0.812   .     S
O89    Gd109   2.509   1_554 S
C91    C87     1.530   1_556 S
C91    O93     1.257   .     S
C91    O92     1.260   .     S
O93    Gd109   2.483   .     S
P94    O95     1.517   .     S
P94    O96     1.546   .     S
P94    O97     1.521   .     S
P94    C98     1.839   .     S
O95    Gd218   2.352   1_455 S
C98    H99     1.000   .     S
C98    C102    1.536   .     S
C98    O100    1.436   .     S
O100   Gd82    2.586   1_554 S
O100   H101    0.826   .     S
C102   O103    1.238   .     S
C102   O104    1.264   .     S
O103   Gd218   2.396   1_455 S
O104   Gd82    2.373   1_554 S
O107   Gd218   2.390   .     S
O108   Gd218   2.410   .     S
Gd109  O111    2.341   1_556 S
Gd109  O119    2.537   .     S
Gd109  O127    2.586   1_556 S
Gd109  O131    2.373   1_556 S
Gd109  O132    2.437   .     S
Gd109  O133    2.483   .     S
Gd109  O140    2.274   .     S
Gd109  O89     2.509   1_556 S
P110   O111    1.504   .     S
P110   O112    1.561   .     S
P110   O113    1.489   .     S
P110   C114    1.833   .     S
O111   Gd109   2.341   1_554 S
O113   Gd136   2.274   .     S
C114   H115    1.000   .     S
C114   O116    1.423   1_655 S
C114   C118    1.530   1_554 S
O116   C114    1.423   1_455 S
O116   H117    0.812   .     S
O116   Gd82    2.509   1_554 S
C118   C114    1.530   1_556 S
C118   O120    1.257   .     S
C118   O119    1.260   .     S
O120   Gd82    2.483   1_655 S
P121   O122    1.517   .     S
P121   O123    1.546   .     S
P121   O124    1.521   .     S
P121   C125    1.839   .     S
O122   Gd219   2.352   .     S
C125   H126    1.000   .     S
C125   C129    1.536   .     S
C125   O127    1.436   .     S
O127   Gd109   2.586   1_554 S
O127   H128    0.826   .     S
C129   O130    1.238   .     S
C129   O131    1.264   .     S
O130   Gd219   2.396   .     S
O131   Gd109   2.373   1_554 S
O134   Gd219   2.390   .     S
O135   Gd219   2.410   .     S
Gd136  O138    2.341   .     S
Gd136  O146    2.537   .     S
Gd136  O154    2.586   .     S
Gd136  O158    2.373   .     S
Gd136  O159    2.437   .     S
Gd136  O160    2.483   .     S
Gd136  O66     2.483   1_655 S
P137   O138    1.504   .     S
P137   O139    1.561   .     S
P137   O140    1.489   .     S
P137   C141    1.833   .     S
C141   H142    1.000   .     S
C141   O143    1.423   .     S
C141   C145    1.530   .     S
O143   H144    0.812   .     S
C145   O147    1.257   .     S
C145   O146    1.260   .     S
P148   O149    1.517   .     S
P148   O150    1.546   .     S
P148   O151    1.521   .     S
P148   C152    1.839   .     S
O149   Gd220   2.352   1_655 S
C152   H153    1.000   .     S
C152   C156    1.536   .     S
C152   O154    1.436   .     S
O154   H155    0.826   .     S
C156   O157    1.238   .     S
C156   O158    1.264   .     S
O157   Gd220   2.396   1_655 S
O161   Gd220   2.390   .     S
O162   Gd220   2.410   .     S
Gd163  O165    2.341   .     S
Gd163  O173    2.537   .     S
Gd163  O181    2.586   .     S
Gd163  O185    2.373   .     S
Gd163  O186    2.437   .     S
Gd163  O187    2.483   .     S
Gd163  O194    2.274   .     S
P164   O165    1.504   .     S
P164   O166    1.561   .     S
P164   O167    1.489   .     S
P164   C168    1.833   .     S
O167   Gd190   2.274   .     S
C168   H169    1.000   .     S
C168   O170    1.423   1_655 S
C168   C172    1.530   .     S
O170   C168    1.423   1_455 S
O170   H171    0.812   .     S
C172   O174    1.257   .     S
C172   O173    1.260   .     S
O174   Gd28    2.483   1_655 S
P175   O176    1.517   .     S
P175   O177    1.546   .     S
P175   O178    1.521   .     S
P175   C179    1.839   .     S
O176   Gd219   2.352   1_565 S
C179   H180    1.000   .     S
C179   C183    1.536   .     S
C179   O181    1.436   .     S
O181   H182    0.826   .     S
C183   O184    1.238   .     S
C183   O185    1.264   .     S
O184   Gd219   2.396   1_565 S
O188   Gd219   2.390   1_565 S
O189   Gd219   2.410   1_565 S
Gd190  O192    2.341   1_554 S
Gd190  O200    2.537   .     S
Gd190  O208    2.586   1_554 S
Gd190  O212    2.373   1_554 S
Gd190  O213    2.437   .     S
Gd190  O214    2.483   .     S
Gd190  O8      2.509   1_554 S
Gd190  O12     2.483   1_655 S
P191   O192    1.504   .     S
P191   O193    1.561   .     S
P191   O194    1.489   .     S
P191   C195    1.833   .     S
O192   Gd190   2.341   1_556 S
C195   H196    1.000   .     S
C195   O197    1.423   .     S
C195   C199    1.530   1_556 S
O197   H198    0.812   .     S
O197   Gd1     2.509   1_556 S
C199   C195    1.530   1_554 S
C199   O201    1.257   .     S
C199   O200    1.260   .     S
P202   O203    1.517   .     S
P202   O204    1.546   .     S
P202   O205    1.521   .     S
P202   C206    1.839   .     S
O203   Gd220   2.352   1_655 S
C206   H207    1.000   .     S
C206   C210    1.536   .     S
C206   O208    1.436   .     S
O208   Gd190   2.586   1_556 S
O208   H209    0.826   .     S
C210   O211    1.238   .     S
C210   O212    1.264   .     S
O211   Gd220   2.396   1_655 S
O212   Gd190   2.373   1_556 S
O215   Gd220   2.390   .     S
O216   Gd220   2.410   .     S
Gd217  O14     2.352   1_545 S
Gd217  O22     2.396   1_545 S
Gd217  O26     2.390   1_545 S
Gd217  O27     2.410   1_545 S
Gd218  O41     2.352   1_655 S
Gd218  O95     2.352   1_655 S
Gd218  O49     2.396   1_655 S
Gd218  O103    2.396   1_655 S
Gd219  O176    2.352   1_545 S
Gd219  O184    2.396   1_545 S
Gd219  O188    2.390   1_545 S
Gd219  O189    2.410   1_545 S
Gd220  O149    2.352   1_455 S
Gd220  O203    2.352   1_455 S
Gd220  O157    2.396   1_455 S
Gd220  O211    2.396   1_455 S
