data_NOSGOU_FSR
_audit_creation_date              2024-06-11
_audit_creation_method            'Materials Studio'
_symmetry_space_group_name_H-M    'P1'
_symmetry_Int_Tables_number       1
_symmetry_cell_setting            triclinic
loop_
_symmetry_equiv_pos_as_xyz
  x,y,z
_cell_length_a                    21.0518
_cell_length_b                    7.8144
_cell_length_c                    25.4452
_cell_angle_alpha                 90.0000
_cell_angle_beta                  113.4930
_cell_angle_gamma                 90.0000
loop_
_atom_site_label
_atom_site_type_symbol
_atom_site_fract_x
_atom_site_fract_y
_atom_site_fract_z
_atom_site_U_iso_or_equiv
_atom_site_adp_type
_atom_site_occupancy
H1     H     0.52610   0.44330   0.23990   0.00000  Uiso   1.00
O2     O     0.79311   0.68030   0.23731   0.00000  Uiso   1.00
Co3    Co    0.77314   0.07043   0.34286   0.00000  Uiso   1.00
O4     O     0.68912   0.94700   0.34807   0.00000  Uiso   1.00
O5     O     0.58010   0.86340   0.31633   0.00000  Uiso   1.00
C6     C     0.63718   0.87940   0.31061   0.00000  Uiso   1.00
C7     C     0.63700   0.81030   0.25623   0.00000  Uiso   1.00
N8     N     0.57357   0.77480   0.21348   0.00000  Uiso   1.00
C9     C     0.58734   0.71980   0.16904   0.00000  Uiso   1.00
C10    C     0.68664   0.76770   0.23647   0.00000  Uiso   1.00
C11    C     0.76348   0.76500   0.26263   0.00000  Uiso   1.00
N12    N     0.65515   0.70870   0.18128   0.00000  Uiso   1.00
C13    C     0.53438   0.69720   0.11018   0.00000  Uiso   1.00
C14    C     0.43842   0.66520   0.99726   0.00000  Uiso   1.00
C15    C     0.42940   0.57580   0.04082   0.00000  Uiso   1.00
H16    H     0.39150   0.50370   0.03230   0.00000  Uiso   1.00
C17    C     0.47700   0.59310   0.09743   0.00000  Uiso   1.00
H18    H     0.47010   0.53470   0.12660   0.00000  Uiso   1.00
C19    C     0.54360   0.78500   0.06616   0.00000  Uiso   1.00
H20    H     0.58230   0.85430   0.07440   0.00000  Uiso   1.00
C21    C     0.49570   0.77010   0.01034   0.00000  Uiso   1.00
H22    H     0.50190   0.83090   0.98130   0.00000  Uiso   1.00
O23    O     0.39956   0.74230   0.90036   0.00000  Uiso   1.00
H24    H     0.36640   0.73640   0.86930   0.00000  Uiso   1.00
C25    C     0.38897   0.64140   0.93725   0.00000  Uiso   1.00
O26    O     0.34313   0.53410   0.92334   0.00000  Uiso   1.00
N27    N     0.75847   0.27600   0.39067   0.00000  Uiso   1.00
C28    C     0.80660   0.33120   0.43900   0.00000  Uiso   1.00
H29    H     0.84720   0.26810   0.45510   0.00000  Uiso   1.00
C30    C     0.80050   0.47640   0.46720   0.00000  Uiso   1.00
H31    H     0.83930   0.51240   0.49860   0.00000  Uiso   1.00
C32    C     0.70120   0.37930   0.36670   0.00000  Uiso   1.00
H33    H     0.66760   0.34970   0.33100   0.00000  Uiso   1.00
C34    C     0.69160   0.52430   0.39320   0.00000  Uiso   1.00
H35    H     0.65370   0.59640   0.37620   0.00000  Uiso   1.00
C36    C     0.74950   0.55850   0.45420   0.00000  Uiso   1.00
O37    O     0.79579   0.84660   0.30863   0.00000  Uiso   1.00
C38    C     0.75960   0.67480   0.50620   0.00000  Uiso   1.00
H39    H     0.77860   0.63510   0.54370   0.00000  Uiso   1.00
H40    H     0.02610   0.94330   0.23990   0.00000  Uiso   1.00
O41    O     0.29311   0.18030   0.23731   0.00000  Uiso   1.00
Co42   Co    0.27314   0.57043   0.34286   0.00000  Uiso   1.00
O43    O     0.18912   0.44700   0.34807   0.00000  Uiso   1.00
O44    O     0.08010   0.36340   0.31633   0.00000  Uiso   1.00
C45    C     0.13718   0.37940   0.31061   0.00000  Uiso   1.00
C46    C     0.13700   0.31030   0.25623   0.00000  Uiso   1.00
N47    N     0.07357   0.27480   0.21348   0.00000  Uiso   1.00
C48    C     0.08734   0.21980   0.16904   0.00000  Uiso   1.00
C49    C     0.18664   0.26770   0.23647   0.00000  Uiso   1.00
C50    C     0.26348   0.26500   0.26263   0.00000  Uiso   1.00
N51    N     0.15515   0.20870   0.18128   0.00000  Uiso   1.00
C52    C     0.03438   0.19720   0.11018   0.00000  Uiso   1.00
C53    C     0.93842   0.16520   0.99726   0.00000  Uiso   1.00
C54    C     0.92940   0.07580   0.04082   0.00000  Uiso   1.00
H55    H     0.89150   0.00370   0.03230   0.00000  Uiso   1.00
C56    C     0.97700   0.09310   0.09743   0.00000  Uiso   1.00
H57    H     0.97010   0.03470   0.12660   0.00000  Uiso   1.00
C58    C     0.04360   0.28500   0.06616   0.00000  Uiso   1.00
H59    H     0.08230   0.35430   0.07440   0.00000  Uiso   1.00
C60    C     0.99570   0.27010   0.01034   0.00000  Uiso   1.00
H61    H     0.00190   0.33090   0.98130   0.00000  Uiso   1.00
O62    O     0.89956   0.24230   0.90036   0.00000  Uiso   1.00
H63    H     0.86640   0.23640   0.86930   0.00000  Uiso   1.00
C64    C     0.88897   0.14140   0.93725   0.00000  Uiso   1.00
O65    O     0.84313   0.03410   0.92334   0.00000  Uiso   1.00
N66    N     0.25847   0.77600   0.39067   0.00000  Uiso   1.00
C67    C     0.30660   0.83120   0.43900   0.00000  Uiso   1.00
H68    H     0.34720   0.76810   0.45510   0.00000  Uiso   1.00
C69    C     0.30050   0.97640   0.46720   0.00000  Uiso   1.00
H70    H     0.33930   0.01240   0.49860   0.00000  Uiso   1.00
C71    C     0.20120   0.87930   0.36670   0.00000  Uiso   1.00
H72    H     0.16760   0.84970   0.33100   0.00000  Uiso   1.00
C73    C     0.19160   0.02430   0.39320   0.00000  Uiso   1.00
H74    H     0.15370   0.09640   0.37620   0.00000  Uiso   1.00
C75    C     0.24950   0.05850   0.45420   0.00000  Uiso   1.00
O76    O     0.29579   0.34660   0.30863   0.00000  Uiso   1.00
C77    C     0.25960   0.17480   0.50620   0.00000  Uiso   1.00
H78    H     0.27860   0.13510   0.54370   0.00000  Uiso   1.00
H79    H     0.47390   0.44330   0.26010   0.00000  Uiso   1.00
O80    O     0.20689   0.68030   0.26269   0.00000  Uiso   1.00
Co81   Co    0.22686   0.07043   0.15714   0.00000  Uiso   1.00
O82    O     0.31088   0.94700   0.15193   0.00000  Uiso   1.00
O83    O     0.41990   0.86340   0.18367   0.00000  Uiso   1.00
C84    C     0.36282   0.87940   0.18939   0.00000  Uiso   1.00
C85    C     0.36300   0.81030   0.24377   0.00000  Uiso   1.00
N86    N     0.42643   0.77480   0.28652   0.00000  Uiso   1.00
C87    C     0.41266   0.71980   0.33096   0.00000  Uiso   1.00
C88    C     0.31336   0.76770   0.26353   0.00000  Uiso   1.00
C89    C     0.23652   0.76500   0.23737   0.00000  Uiso   1.00
N90    N     0.34485   0.70870   0.31872   0.00000  Uiso   1.00
C91    C     0.46562   0.69720   0.38982   0.00000  Uiso   1.00
C92    C     0.56158   0.66520   0.50274   0.00000  Uiso   1.00
C93    C     0.57060   0.57580   0.45918   0.00000  Uiso   1.00
H94    H     0.60850   0.50370   0.46770   0.00000  Uiso   1.00
C95    C     0.52300   0.59310   0.40257   0.00000  Uiso   1.00
H96    H     0.52990   0.53470   0.37340   0.00000  Uiso   1.00
C97    C     0.45640   0.78500   0.43384   0.00000  Uiso   1.00
H98    H     0.41770   0.85430   0.42560   0.00000  Uiso   1.00
C99    C     0.50430   0.77010   0.48966   0.00000  Uiso   1.00
H100   H     0.49810   0.83090   0.51870   0.00000  Uiso   1.00
O101   O     0.60044   0.74230   0.59964   0.00000  Uiso   1.00
H102   H     0.63360   0.73640   0.63070   0.00000  Uiso   1.00
C103   C     0.61103   0.64140   0.56275   0.00000  Uiso   1.00
O104   O     0.65687   0.53410   0.57666   0.00000  Uiso   1.00
N105   N     0.24153   0.27600   0.10933   0.00000  Uiso   1.00
C106   C     0.19340   0.33120   0.06100   0.00000  Uiso   1.00
H107   H     0.15280   0.26810   0.04490   0.00000  Uiso   1.00
C108   C     0.19950   0.47640   0.03280   0.00000  Uiso   1.00
H109   H     0.16070   0.51240   0.00140   0.00000  Uiso   1.00
C110   C     0.29880   0.37930   0.13330   0.00000  Uiso   1.00
H111   H     0.33240   0.34970   0.16900   0.00000  Uiso   1.00
C112   C     0.30840   0.52430   0.10680   0.00000  Uiso   1.00
H113   H     0.34630   0.59640   0.12380   0.00000  Uiso   1.00
C114   C     0.25050   0.55850   0.04580   0.00000  Uiso   1.00
O115   O     0.20421   0.84660   0.19137   0.00000  Uiso   1.00
C116   C     0.24040   0.67480   0.99380   0.00000  Uiso   1.00
H117   H     0.22140   0.63510   0.95630   0.00000  Uiso   1.00
H118   H     0.97390   0.94330   0.26010   0.00000  Uiso   1.00
O119   O     0.70689   0.18030   0.26269   0.00000  Uiso   1.00
Co120  Co    0.72686   0.57043   0.15714   0.00000  Uiso   1.00
O121   O     0.81088   0.44700   0.15193   0.00000  Uiso   1.00
O122   O     0.91990   0.36340   0.18367   0.00000  Uiso   1.00
C123   C     0.86282   0.37940   0.18939   0.00000  Uiso   1.00
C124   C     0.86300   0.31030   0.24377   0.00000  Uiso   1.00
N125   N     0.92643   0.27480   0.28652   0.00000  Uiso   1.00
C126   C     0.91266   0.21980   0.33096   0.00000  Uiso   1.00
C127   C     0.81336   0.26770   0.26353   0.00000  Uiso   1.00
C128   C     0.73652   0.26500   0.23737   0.00000  Uiso   1.00
N129   N     0.84485   0.20870   0.31872   0.00000  Uiso   1.00
C130   C     0.96562   0.19720   0.38982   0.00000  Uiso   1.00
C131   C     0.06158   0.16520   0.50274   0.00000  Uiso   1.00
C132   C     0.07060   0.07580   0.45918   0.00000  Uiso   1.00
H133   H     0.10850   0.00370   0.46770   0.00000  Uiso   1.00
C134   C     0.02300   0.09310   0.40257   0.00000  Uiso   1.00
H135   H     0.02990   0.03470   0.37340   0.00000  Uiso   1.00
C136   C     0.95640   0.28500   0.43384   0.00000  Uiso   1.00
H137   H     0.91770   0.35430   0.42560   0.00000  Uiso   1.00
C138   C     0.00430   0.27010   0.48966   0.00000  Uiso   1.00
H139   H     0.99810   0.33090   0.51870   0.00000  Uiso   1.00
O140   O     0.10044   0.24230   0.59964   0.00000  Uiso   1.00
H141   H     0.13360   0.23640   0.63070   0.00000  Uiso   1.00
C142   C     0.11103   0.14140   0.56275   0.00000  Uiso   1.00
O143   O     0.15687   0.03410   0.57666   0.00000  Uiso   1.00
N144   N     0.74153   0.77600   0.10933   0.00000  Uiso   1.00
C145   C     0.69340   0.83120   0.06100   0.00000  Uiso   1.00
H146   H     0.65280   0.76810   0.04490   0.00000  Uiso   1.00
C147   C     0.69950   0.97640   0.03280   0.00000  Uiso   1.00
H148   H     0.66070   0.01240   0.00140   0.00000  Uiso   1.00
C149   C     0.79880   0.87930   0.13330   0.00000  Uiso   1.00
H150   H     0.83240   0.84970   0.16900   0.00000  Uiso   1.00
C151   C     0.80840   0.02430   0.10680   0.00000  Uiso   1.00
H152   H     0.84630   0.09640   0.12380   0.00000  Uiso   1.00
C153   C     0.75050   0.05850   0.04580   0.00000  Uiso   1.00
O154   O     0.70421   0.34660   0.19137   0.00000  Uiso   1.00
C155   C     0.74040   0.17480   0.99380   0.00000  Uiso   1.00
H156   H     0.72140   0.13510   0.95630   0.00000  Uiso   1.00
H157   H     0.47390   0.55670   0.76010   0.00000  Uiso   1.00
O158   O     0.20689   0.31970   0.76269   0.00000  Uiso   1.00
Co159  Co    0.22686   0.92957   0.65714   0.00000  Uiso   1.00
O160   O     0.31088   0.05300   0.65193   0.00000  Uiso   1.00
O161   O     0.41990   0.13660   0.68367   0.00000  Uiso   1.00
C162   C     0.36282   0.12060   0.68939   0.00000  Uiso   1.00
C163   C     0.36300   0.18970   0.74377   0.00000  Uiso   1.00
N164   N     0.42643   0.22520   0.78652   0.00000  Uiso   1.00
C165   C     0.41266   0.28020   0.83096   0.00000  Uiso   1.00
C166   C     0.31336   0.23230   0.76353   0.00000  Uiso   1.00
C167   C     0.23652   0.23500   0.73737   0.00000  Uiso   1.00
N168   N     0.34485   0.29130   0.81872   0.00000  Uiso   1.00
C169   C     0.46562   0.30280   0.88982   0.00000  Uiso   1.00
C170   C     0.56158   0.33480   0.00274   0.00000  Uiso   1.00
C171   C     0.57060   0.42420   0.95918   0.00000  Uiso   1.00
H172   H     0.60850   0.49630   0.96770   0.00000  Uiso   1.00
C173   C     0.52300   0.40690   0.90257   0.00000  Uiso   1.00
H174   H     0.52990   0.46530   0.87340   0.00000  Uiso   1.00
C175   C     0.45640   0.21500   0.93384   0.00000  Uiso   1.00
H176   H     0.41770   0.14570   0.92560   0.00000  Uiso   1.00
C177   C     0.50430   0.22990   0.98966   0.00000  Uiso   1.00
H178   H     0.49810   0.16910   0.01870   0.00000  Uiso   1.00
O179   O     0.60044   0.25770   0.09964   0.00000  Uiso   1.00
H180   H     0.63360   0.26360   0.13070   0.00000  Uiso   1.00
C181   C     0.61103   0.35860   0.06275   0.00000  Uiso   1.00
O182   O     0.65687   0.46590   0.07666   0.00000  Uiso   1.00
N183   N     0.24153   0.72400   0.60933   0.00000  Uiso   1.00
C184   C     0.19340   0.66880   0.56100   0.00000  Uiso   1.00
H185   H     0.15280   0.73190   0.54490   0.00000  Uiso   1.00
C186   C     0.19950   0.52360   0.53280   0.00000  Uiso   1.00
H187   H     0.16070   0.48760   0.50140   0.00000  Uiso   1.00
C188   C     0.29880   0.62070   0.63330   0.00000  Uiso   1.00
H189   H     0.33240   0.65030   0.66900   0.00000  Uiso   1.00
C190   C     0.30840   0.47570   0.60680   0.00000  Uiso   1.00
H191   H     0.34630   0.40360   0.62380   0.00000  Uiso   1.00
C192   C     0.25050   0.44150   0.54580   0.00000  Uiso   1.00
O193   O     0.20421   0.15340   0.69137   0.00000  Uiso   1.00
C194   C     0.24040   0.32520   0.49380   0.00000  Uiso   1.00
H195   H     0.22140   0.36490   0.45630   0.00000  Uiso   1.00
H196   H     0.97390   0.05670   0.76010   0.00000  Uiso   1.00
O197   O     0.70689   0.81970   0.76269   0.00000  Uiso   1.00
Co198  Co    0.72686   0.42957   0.65714   0.00000  Uiso   1.00
O199   O     0.81088   0.55300   0.65193   0.00000  Uiso   1.00
O200   O     0.91990   0.63660   0.68367   0.00000  Uiso   1.00
C201   C     0.86282   0.62060   0.68939   0.00000  Uiso   1.00
C202   C     0.86300   0.68970   0.74377   0.00000  Uiso   1.00
N203   N     0.92643   0.72520   0.78652   0.00000  Uiso   1.00
C204   C     0.91266   0.78020   0.83096   0.00000  Uiso   1.00
C205   C     0.81336   0.73230   0.76353   0.00000  Uiso   1.00
C206   C     0.73652   0.73500   0.73737   0.00000  Uiso   1.00
N207   N     0.84485   0.79130   0.81872   0.00000  Uiso   1.00
C208   C     0.96562   0.80280   0.88982   0.00000  Uiso   1.00
C209   C     0.06158   0.83480   0.00274   0.00000  Uiso   1.00
C210   C     0.07060   0.92420   0.95918   0.00000  Uiso   1.00
H211   H     0.10850   0.99630   0.96770   0.00000  Uiso   1.00
C212   C     0.02300   0.90690   0.90257   0.00000  Uiso   1.00
H213   H     0.02990   0.96530   0.87340   0.00000  Uiso   1.00
C214   C     0.95640   0.71500   0.93384   0.00000  Uiso   1.00
H215   H     0.91770   0.64570   0.92560   0.00000  Uiso   1.00
C216   C     0.00430   0.72990   0.98966   0.00000  Uiso   1.00
H217   H     0.99810   0.66910   0.01870   0.00000  Uiso   1.00
O218   O     0.10044   0.75770   0.09964   0.00000  Uiso   1.00
H219   H     0.13360   0.76360   0.13070   0.00000  Uiso   1.00
C220   C     0.11103   0.85860   0.06275   0.00000  Uiso   1.00
O221   O     0.15687   0.96590   0.07666   0.00000  Uiso   1.00
N222   N     0.74153   0.22400   0.60933   0.00000  Uiso   1.00
C223   C     0.69340   0.16880   0.56100   0.00000  Uiso   1.00
H224   H     0.65280   0.23190   0.54490   0.00000  Uiso   1.00
C225   C     0.69950   0.02360   0.53280   0.00000  Uiso   1.00
H226   H     0.66070   0.98760   0.50140   0.00000  Uiso   1.00
C227   C     0.79880   0.12070   0.63330   0.00000  Uiso   1.00
H228   H     0.83240   0.15030   0.66900   0.00000  Uiso   1.00
C229   C     0.80840   0.97570   0.60680   0.00000  Uiso   1.00
H230   H     0.84630   0.90360   0.62380   0.00000  Uiso   1.00
C231   C     0.75050   0.94150   0.54580   0.00000  Uiso   1.00
O232   O     0.70421   0.65340   0.69137   0.00000  Uiso   1.00
C233   C     0.74040   0.82520   0.49380   0.00000  Uiso   1.00
H234   H     0.72140   0.86490   0.45630   0.00000  Uiso   1.00
H235   H     0.52610   0.55670   0.73990   0.00000  Uiso   1.00
O236   O     0.79311   0.31970   0.73731   0.00000  Uiso   1.00
Co237  Co    0.77314   0.92957   0.84286   0.00000  Uiso   1.00
O238   O     0.68912   0.05300   0.84807   0.00000  Uiso   1.00
O239   O     0.58010   0.13660   0.81633   0.00000  Uiso   1.00
C240   C     0.63718   0.12060   0.81061   0.00000  Uiso   1.00
C241   C     0.63700   0.18970   0.75623   0.00000  Uiso   1.00
N242   N     0.57357   0.22520   0.71348   0.00000  Uiso   1.00
C243   C     0.58734   0.28020   0.66904   0.00000  Uiso   1.00
C244   C     0.68664   0.23230   0.73647   0.00000  Uiso   1.00
C245   C     0.76348   0.23500   0.76263   0.00000  Uiso   1.00
N246   N     0.65515   0.29130   0.68128   0.00000  Uiso   1.00
C247   C     0.53438   0.30280   0.61018   0.00000  Uiso   1.00
C248   C     0.43842   0.33480   0.49726   0.00000  Uiso   1.00
C249   C     0.42940   0.42420   0.54082   0.00000  Uiso   1.00
H250   H     0.39150   0.49630   0.53230   0.00000  Uiso   1.00
C251   C     0.47700   0.40690   0.59743   0.00000  Uiso   1.00
H252   H     0.47010   0.46530   0.62660   0.00000  Uiso   1.00
C253   C     0.54360   0.21500   0.56616   0.00000  Uiso   1.00
H254   H     0.58230   0.14570   0.57440   0.00000  Uiso   1.00
C255   C     0.49570   0.22990   0.51034   0.00000  Uiso   1.00
H256   H     0.50190   0.16910   0.48130   0.00000  Uiso   1.00
O257   O     0.39956   0.25770   0.40036   0.00000  Uiso   1.00
H258   H     0.36640   0.26360   0.36930   0.00000  Uiso   1.00
C259   C     0.38897   0.35860   0.43725   0.00000  Uiso   1.00
O260   O     0.34313   0.46590   0.42334   0.00000  Uiso   1.00
N261   N     0.75847   0.72400   0.89067   0.00000  Uiso   1.00
C262   C     0.80660   0.66880   0.93900   0.00000  Uiso   1.00
H263   H     0.84720   0.73190   0.95510   0.00000  Uiso   1.00
C264   C     0.80050   0.52360   0.96720   0.00000  Uiso   1.00
H265   H     0.83930   0.48760   0.99860   0.00000  Uiso   1.00
C266   C     0.70120   0.62070   0.86670   0.00000  Uiso   1.00
H267   H     0.66760   0.65030   0.83100   0.00000  Uiso   1.00
C268   C     0.69160   0.47570   0.89320   0.00000  Uiso   1.00
H269   H     0.65370   0.40360   0.87620   0.00000  Uiso   1.00
C270   C     0.74950   0.44150   0.95420   0.00000  Uiso   1.00
O271   O     0.79579   0.15340   0.80863   0.00000  Uiso   1.00
C272   C     0.75960   0.32520   0.00620   0.00000  Uiso   1.00
H273   H     0.77860   0.36490   0.04370   0.00000  Uiso   1.00
H274   H     0.02610   0.05670   0.73990   0.00000  Uiso   1.00
O275   O     0.29311   0.81970   0.73731   0.00000  Uiso   1.00
Co276  Co    0.27314   0.42957   0.84286   0.00000  Uiso   1.00
O277   O     0.18912   0.55300   0.84807   0.00000  Uiso   1.00
O278   O     0.08010   0.63660   0.81633   0.00000  Uiso   1.00
C279   C     0.13718   0.62060   0.81061   0.00000  Uiso   1.00
C280   C     0.13700   0.68970   0.75623   0.00000  Uiso   1.00
N281   N     0.07357   0.72520   0.71348   0.00000  Uiso   1.00
C282   C     0.08734   0.78020   0.66904   0.00000  Uiso   1.00
C283   C     0.18664   0.73230   0.73647   0.00000  Uiso   1.00
C284   C     0.26348   0.73500   0.76263   0.00000  Uiso   1.00
N285   N     0.15515   0.79130   0.68128   0.00000  Uiso   1.00
C286   C     0.03438   0.80280   0.61018   0.00000  Uiso   1.00
C287   C     0.93842   0.83480   0.49726   0.00000  Uiso   1.00
C288   C     0.92940   0.92420   0.54082   0.00000  Uiso   1.00
H289   H     0.89150   0.99630   0.53230   0.00000  Uiso   1.00
C290   C     0.97700   0.90690   0.59743   0.00000  Uiso   1.00
H291   H     0.97010   0.96530   0.62660   0.00000  Uiso   1.00
C292   C     0.04360   0.71500   0.56616   0.00000  Uiso   1.00
H293   H     0.08230   0.64570   0.57440   0.00000  Uiso   1.00
C294   C     0.99570   0.72990   0.51034   0.00000  Uiso   1.00
H295   H     0.00190   0.66910   0.48130   0.00000  Uiso   1.00
O296   O     0.89956   0.75770   0.40036   0.00000  Uiso   1.00
H297   H     0.86640   0.76360   0.36930   0.00000  Uiso   1.00
C298   C     0.88897   0.85860   0.43725   0.00000  Uiso   1.00
O299   O     0.84313   0.96590   0.42334   0.00000  Uiso   1.00
N300   N     0.25847   0.22400   0.89067   0.00000  Uiso   1.00
C301   C     0.30660   0.16880   0.93900   0.00000  Uiso   1.00
H302   H     0.34720   0.23190   0.95510   0.00000  Uiso   1.00
C303   C     0.30050   0.02360   0.96720   0.00000  Uiso   1.00
H304   H     0.33930   0.98760   0.99860   0.00000  Uiso   1.00
C305   C     0.20120   0.12070   0.86670   0.00000  Uiso   1.00
H306   H     0.16760   0.15030   0.83100   0.00000  Uiso   1.00
C307   C     0.19160   0.97570   0.89320   0.00000  Uiso   1.00
H308   H     0.15370   0.90360   0.87620   0.00000  Uiso   1.00
C309   C     0.24950   0.94150   0.95420   0.00000  Uiso   1.00
O310   O     0.29579   0.65340   0.80863   0.00000  Uiso   1.00
C311   C     0.25960   0.82520   0.00620   0.00000  Uiso   1.00
H312   H     0.27860   0.86490   0.04370   0.00000  Uiso   1.00
O313   O     0.50000   0.50640   0.25000   0.00000  Uiso   1.00
Co314  Co    0.50000   0.76270   0.25000   0.00000  Uiso   1.00
O315   O     0.00000   0.00640   0.25000   0.00000  Uiso   1.00
Co316  Co    0.00000   0.26270   0.25000   0.00000  Uiso   1.00
O317   O     0.50000   0.49360   0.75000   0.00000  Uiso   1.00
Co318  Co    0.50000   0.23730   0.75000   0.00000  Uiso   1.00
O319   O     0.00000   0.99360   0.75000   0.00000  Uiso   1.00
Co320  Co    0.00000   0.73730   0.75000   0.00000  Uiso   1.00
loop_
_geom_bond_atom_site_label_1
_geom_bond_atom_site_label_2
_geom_bond_distance
_geom_bond_site_symmetry_2
_ccdc_geom_bond_type
H1     O313    0.851   .     S
O2     C11     1.250   .     S
O2     Co120   2.139   .     S
Co3    O4      2.065   1_545 S
Co3    N27     2.111   .     S
Co3    O37     2.092   1_545 S
Co3    O119    2.139   .     S
Co3    N129    2.136   .     S
Co3    O299    2.151   1_545 S
O4     Co3     2.065   1_565 S
O4     C6      1.246   .     S
O5     Co314   2.011   .     S
O5     C6      1.273   .     S
C6     C7      1.484   .     S
C7     C10     1.369   .     S
C7     N8      1.373   .     S
N8     Co314   2.102   .     S
N8     C9      1.345   .     S
C9     N12     1.337   .     S
C9     C13     1.479   .     S
C10    C11     1.484   .     S
C10    N12     1.372   .     S
C11    O37     1.267   .     S
N12    Co120   2.136   .     S
C13    C17     1.383   .     S
C13    C19     1.392   .     S
C14    C15     1.386   1_556 S
C14    C21     1.384   1_556 S
C14    C25     1.477   .     S
C15    C14     1.386   1_554 S
C15    H16     0.929   .     S
C15    C17     1.395   .     S
C17    H18     0.931   .     S
C19    H20     0.930   .     S
C19    C21     1.381   .     S
C21    C14     1.384   1_554 S
C21    H22     0.930   1_554 S
H22    C21     0.930   1_556 S
O23    H24     0.821   .     S
O23    C25     1.311   .     S
C25    O26     1.220   .     S
O26    Co276   2.151   .     S
N27    C28     1.316   .     S
N27    C32     1.375   .     S
C28    H29     0.929   .     S
C28    C30     1.376   .     S
C30    H31     0.930   .     S
C30    C36     1.179   .     S
C32    H33     0.931   .     S
C32    C34     1.374   .     S
C34    H35     0.931   .     S
C34    C36     1.568   .     S
C36    C38     1.548   .     S
O37    Co3     2.092   1_565 S
C38    H39     0.929   .     S
C38    C233    1.242   .     S
H40    O315    0.851   1_565 S
O41    C50     1.250   .     S
O41    Co81    2.139   .     S
Co42   O43     2.065   .     S
Co42   N66     2.111   .     S
Co42   O76     2.092   .     S
Co42   O80     2.139   .     S
Co42   N90     2.136   .     S
Co42   O260    2.151   .     S
O43    C45     1.246   .     S
O44    Co316   2.011   .     S
O44    C45     1.273   .     S
C45    C46     1.484   .     S
C46    C49     1.369   .     S
C46    N47     1.373   .     S
N47    Co316   2.102   .     S
N47    C48     1.345   .     S
C48    N51     1.337   .     S
C48    C52     1.479   .     S
C49    C50     1.484   .     S
C49    N51     1.372   .     S
C50    O76     1.267   .     S
N51    Co81    2.136   .     S
C52    C56     1.383   1_455 S
C52    C58     1.392   .     S
C53    C54     1.386   1_556 S
C53    C60     1.384   1_556 S
C53    C64     1.477   .     S
C54    C53     1.386   1_554 S
C54    H55     0.929   .     S
C54    C56     1.395   .     S
C56    C52     1.383   1_655 S
C56    H57     0.931   .     S
C58    H59     0.930   .     S
C58    C60     1.381   1_455 S
C60    C53     1.384   1_554 S
C60    H61     0.930   1_654 S
C60    C58     1.381   1_655 S
H61    C60     0.930   1_456 S
O62    H63     0.821   .     S
O62    C64     1.311   .     S
C64    O65     1.220   .     S
O65    Co237   2.151   1_545 S
N66    C67     1.316   .     S
N66    C71     1.375   .     S
C67    H68     0.929   .     S
C67    C69     1.376   .     S
C69    H70     0.930   1_565 S
C69    C75     1.179   1_565 S
H70    C69     0.930   1_545 S
C71    H72     0.931   .     S
C71    C73     1.374   1_565 S
C73    C71     1.374   1_545 S
C73    H74     0.931   .     S
C73    C75     1.568   .     S
C75    C69     1.179   1_545 S
C75    C77     1.548   .     S
C77    H78     0.929   .     S
C77    C194    1.242   .     S
H79    O313    0.851   .     S
O80    C89     1.250   .     S
Co81   O82     2.065   1_545 S
Co81   N105    2.111   .     S
Co81   O115    2.092   1_545 S
Co81   O221    2.151   1_545 S
O82    Co81    2.065   1_565 S
O82    C84     1.246   .     S
O83    Co314   2.011   .     S
O83    C84     1.273   .     S
C84    C85     1.484   .     S
C85    C88     1.369   .     S
C85    N86     1.373   .     S
N86    Co314   2.102   .     S
N86    C87     1.345   .     S
C87    N90     1.337   .     S
C87    C91     1.479   .     S
C88    C89     1.484   .     S
C88    N90     1.372   .     S
C89    O115    1.267   .     S
C91    C95     1.383   .     S
C91    C97     1.392   .     S
C92    C93     1.386   .     S
C92    C99     1.384   .     S
C92    C103    1.477   .     S
C93    H94     0.929   .     S
C93    C95     1.395   .     S
C95    H96     0.931   .     S
C97    H98     0.930   .     S
C97    C99     1.381   .     S
C99    H100    0.930   .     S
O101   H102    0.821   .     S
O101   C103    1.311   .     S
C103   O104    1.220   .     S
O104   Co198   2.151   .     S
N105   C106    1.316   .     S
N105   C110    1.375   .     S
C106   H107    0.929   .     S
C106   C108    1.376   .     S
C108   H109    0.930   .     S
C108   C114    1.179   .     S
C110   H111    0.931   .     S
C110   C112    1.374   .     S
C112   H113    0.931   .     S
C112   C114    1.568   .     S
C114   C116    1.548   1_554 S
O115   Co81    2.092   1_565 S
C116   C114    1.548   1_556 S
C116   H117    0.929   .     S
C116   C311    1.242   1_556 S
H118   O315    0.851   1_665 S
O119   C128    1.250   .     S
Co120  O121    2.065   .     S
Co120  N144    2.111   .     S
Co120  O154    2.092   .     S
Co120  O182    2.151   .     S
O121   C123    1.246   .     S
O122   Co316   2.011   1_655 S
O122   C123    1.273   .     S
C123   C124    1.484   .     S
C124   C127    1.369   .     S
C124   N125    1.373   .     S
N125   Co316   2.102   1_655 S
N125   C126    1.345   .     S
C126   N129    1.337   .     S
C126   C130    1.479   .     S
C127   C128    1.484   .     S
C127   N129    1.372   .     S
C128   O154    1.267   .     S
C130   C134    1.383   1_655 S
C130   C136    1.392   .     S
C131   C132    1.386   .     S
C131   C138    1.384   .     S
C131   C142    1.477   .     S
C132   H133    0.929   .     S
C132   C134    1.395   .     S
C134   C130    1.383   1_455 S
C134   H135    0.931   .     S
C136   H137    0.930   .     S
C136   C138    1.381   1_655 S
C138   H139    0.930   1_455 S
C138   C136    1.381   1_455 S
H139   C138    0.930   1_655 S
O140   H141    0.821   .     S
O140   C142    1.311   .     S
C142   O143    1.220   .     S
O143   Co159   2.151   1_545 S
N144   C145    1.316   .     S
N144   C149    1.375   .     S
C145   H146    0.929   .     S
C145   C147    1.376   .     S
C147   H148    0.930   1_565 S
C147   C153    1.179   1_565 S
H148   C147    0.930   1_545 S
C149   H150    0.931   .     S
C149   C151    1.374   1_565 S
C151   C149    1.374   1_545 S
C151   H152    0.931   .     S
C151   C153    1.568   .     S
C153   C147    1.179   1_545 S
C153   C155    1.548   1_554 S
C155   C153    1.548   1_556 S
C155   H156    0.929   .     S
C155   C272    1.242   1_556 S
H157   O317    0.851   .     S
O158   C167    1.250   .     S
O158   Co276   2.139   .     S
Co159  O160    2.065   1_565 S
Co159  N183    2.111   .     S
Co159  O193    2.092   1_565 S
Co159  O275    2.139   .     S
Co159  N285    2.136   .     S
Co159  O143    2.151   1_565 S
O160   Co159   2.065   1_545 S
O160   C162    1.246   .     S
O161   Co318   2.011   .     S
O161   C162    1.273   .     S
C162   C163    1.484   .     S
C163   C166    1.369   .     S
C163   N164    1.373   .     S
N164   Co318   2.102   .     S
N164   C165    1.345   .     S
C165   N168    1.337   .     S
C165   C169    1.479   .     S
C166   C167    1.484   .     S
C166   N168    1.372   .     S
C167   O193    1.267   .     S
N168   Co276   2.136   .     S
C169   C173    1.383   .     S
C169   C175    1.392   .     S
C170   C171    1.386   1_554 S
C170   C177    1.384   1_554 S
C170   C181    1.477   .     S
C171   C170    1.386   1_556 S
C171   H172    0.929   .     S
C171   C173    1.395   .     S
C173   H174    0.931   .     S
C175   H176    0.930   .     S
C175   C177    1.381   .     S
C177   C170    1.384   1_556 S
C177   H178    0.930   1_556 S
H178   C177    0.930   1_554 S
O179   H180    0.821   .     S
O179   C181    1.311   .     S
C181   O182    1.220   .     S
N183   C184    1.316   .     S
N183   C188    1.375   .     S
C184   H185    0.929   .     S
C184   C186    1.376   .     S
C186   H187    0.930   .     S
C186   C192    1.179   .     S
C188   H189    0.931   .     S
C188   C190    1.374   .     S
C190   H191    0.931   .     S
C190   C192    1.568   .     S
C192   C194    1.548   .     S
O193   Co159   2.092   1_545 S
C194   H195    0.929   .     S
H196   O319    0.851   1_645 S
O197   C206    1.250   .     S
O197   Co237   2.139   .     S
Co198  O199    2.065   .     S
Co198  N222    2.111   .     S
Co198  O232    2.092   .     S
Co198  O236    2.139   .     S
Co198  N246    2.136   .     S
O199   C201    1.246   .     S
O200   Co320   2.011   1_655 S
O200   C201    1.273   .     S
C201   C202    1.484   .     S
C202   C205    1.369   .     S
C202   N203    1.373   .     S
N203   Co320   2.102   1_655 S
N203   C204    1.345   .     S
C204   N207    1.337   .     S
C204   C208    1.479   .     S
C205   C206    1.484   .     S
C205   N207    1.372   .     S
C206   O232    1.267   .     S
N207   Co237   2.136   .     S
C208   C212    1.383   1_655 S
C208   C214    1.392   .     S
C209   C210    1.386   1_554 S
C209   C216    1.384   1_554 S
C209   C220    1.477   .     S
C210   C209    1.386   1_556 S
C210   H211    0.929   .     S
C210   C212    1.395   .     S
C212   C208    1.383   1_455 S
C212   H213    0.931   .     S
C214   H215    0.930   .     S
C214   C216    1.381   1_655 S
C216   C209    1.384   1_556 S
C216   H217    0.930   1_456 S
C216   C214    1.381   1_455 S
H217   C216    0.930   1_654 S
O218   H219    0.821   .     S
O218   C220    1.311   .     S
C220   O221    1.220   .     S
O221   Co81    2.151   1_565 S
N222   C223    1.316   .     S
N222   C227    1.375   .     S
C223   H224    0.929   .     S
C223   C225    1.376   .     S
C225   H226    0.930   1_545 S
C225   C231    1.179   1_545 S
H226   C225    0.930   1_565 S
C227   H228    0.931   .     S
C227   C229    1.374   1_545 S
C229   C227    1.374   1_565 S
C229   H230    0.931   .     S
C229   C231    1.568   .     S
C231   C225    1.179   1_565 S
C231   C233    1.548   .     S
C233   H234    0.929   .     S
H235   O317    0.851   .     S
O236   C245    1.250   .     S
Co237  O238    2.065   1_565 S
Co237  N261    2.111   .     S
Co237  O271    2.092   1_565 S
Co237  O65     2.151   1_565 S
O238   Co237   2.065   1_545 S
O238   C240    1.246   .     S
O239   Co318   2.011   .     S
O239   C240    1.273   .     S
C240   C241    1.484   .     S
C241   C244    1.369   .     S
C241   N242    1.373   .     S
N242   Co318   2.102   .     S
N242   C243    1.345   .     S
C243   N246    1.337   .     S
C243   C247    1.479   .     S
C244   C245    1.484   .     S
C244   N246    1.372   .     S
C245   O271    1.267   .     S
C247   C251    1.383   .     S
C247   C253    1.392   .     S
C248   C249    1.386   .     S
C248   C255    1.384   .     S
C248   C259    1.477   .     S
C249   H250    0.929   .     S
C249   C251    1.395   .     S
C251   H252    0.931   .     S
C253   H254    0.930   .     S
C253   C255    1.381   .     S
C255   H256    0.930   .     S
O257   H258    0.821   .     S
O257   C259    1.311   .     S
C259   O260    1.220   .     S
N261   C262    1.316   .     S
N261   C266    1.375   .     S
C262   H263    0.929   .     S
C262   C264    1.376   .     S
C264   H265    0.930   .     S
C264   C270    1.179   .     S
C266   H267    0.931   .     S
C266   C268    1.374   .     S
C268   H269    0.931   .     S
C268   C270    1.568   .     S
C270   C272    1.548   1_556 S
O271   Co237   2.092   1_545 S
C272   C270    1.548   1_554 S
C272   H273    0.929   .     S
C272   C155    1.242   1_554 S
H274   O319    0.851   1_545 S
O275   C284    1.250   .     S
Co276  O277    2.065   .     S
Co276  N300    2.111   .     S
Co276  O310    2.092   .     S
O277   C279    1.246   .     S
O278   Co320   2.011   .     S
O278   C279    1.273   .     S
C279   C280    1.484   .     S
C280   C283    1.369   .     S
C280   N281    1.373   .     S
N281   Co320   2.102   .     S
N281   C282    1.345   .     S
C282   N285    1.337   .     S
C282   C286    1.479   .     S
C283   C284    1.484   .     S
C283   N285    1.372   .     S
C284   O310    1.267   .     S
C286   C290    1.383   1_455 S
C286   C292    1.392   .     S
C287   C288    1.386   .     S
C287   C294    1.384   .     S
C287   C298    1.477   .     S
C288   H289    0.929   .     S
C288   C290    1.395   .     S
C290   C286    1.383   1_655 S
C290   H291    0.931   .     S
C292   H293    0.930   .     S
C292   C294    1.381   1_455 S
C294   H295    0.930   1_655 S
C294   C292    1.381   1_655 S
H295   C294    0.930   1_455 S
O296   H297    0.821   .     S
O296   C298    1.311   .     S
C298   O299    1.220   .     S
O299   Co3     2.151   1_565 S
N300   C301    1.316   .     S
N300   C305    1.375   .     S
C301   H302    0.929   .     S
C301   C303    1.376   .     S
C303   H304    0.930   1_545 S
C303   C309    1.179   1_545 S
H304   C303    0.930   1_565 S
C305   H306    0.931   .     S
C305   C307    1.374   1_545 S
C307   C305    1.374   1_565 S
C307   H308    0.931   .     S
C307   C309    1.568   .     S
C309   C303    1.179   1_565 S
C309   C311    1.548   1_556 S
C311   C309    1.548   1_554 S
C311   H312    0.929   .     S
C311   C116    1.242   1_554 S
O313   Co314   2.003   .     S
O315   H40     0.851   1_545 S
O315   H118    0.851   1_445 S
O315   Co316   2.003   .     S
Co316  O122    2.011   1_455 S
Co316  N125    2.102   1_455 S
O317   Co318   2.003   .     S
O319   H196    0.851   1_465 S
O319   H274    0.851   1_565 S
O319   Co320   2.003   .     S
Co320  O200    2.011   1_455 S
Co320  N203    2.102   1_455 S
