data_OCOYIS_FSR
_audit_creation_date              2024-06-11
_audit_creation_method            'Materials Studio'
_symmetry_space_group_name_H-M    'P1'
_symmetry_Int_Tables_number       1
_symmetry_cell_setting            triclinic
loop_
_symmetry_equiv_pos_as_xyz
  x,y,z
_cell_length_a                    9.0140
_cell_length_b                    10.3290
_cell_length_c                    16.6770
_cell_angle_alpha                 90.0000
_cell_angle_beta                  94.2500
_cell_angle_gamma                 90.0000
loop_
_atom_site_label
_atom_site_type_symbol
_atom_site_fract_x
_atom_site_fract_y
_atom_site_fract_z
_atom_site_U_iso_or_equiv
_atom_site_adp_type
_atom_site_occupancy
Mg1    Mg    0.26810   0.62580   0.11196   0.00000  Uiso   1.00
Mg2    Mg    0.77070   0.45520   0.10799   0.00000  Uiso   1.00
O3     O     0.64290   0.31020   0.88290   0.00000  Uiso   1.00
O4     O     0.13610   0.66480   0.20407   0.00000  Uiso   1.00
O5     O     0.45590   0.56080   0.17686   0.00000  Uiso   1.00
O6     O     0.58960   0.39100   0.03000   0.00000  Uiso   1.00
O7     O     0.08410   0.69290   0.03390   0.00000  Uiso   1.00
O8     O     0.37800   0.59610   0.00930   0.00000  Uiso   1.00
O9     O     0.18990   0.43930   0.10170   0.00000  Uiso   1.00
O10    O     0.88540   0.48620   0.00650   0.00000  Uiso   1.00
O11    O     0.68870   0.64750   0.09220   0.00000  Uiso   1.00
O12    O     0.84000   0.66230   0.53750   0.00000  Uiso   1.00
O13    O     0.75260   0.49680   0.85520   0.00000  Uiso   1.00
O14    O     0.94440   0.53040   0.17724   0.00000  Uiso   1.00
O15    O     0.64000   0.41870   0.20000   0.00000  Uiso   1.00
O16    O     0.13540   0.77460   0.88601   0.00000  Uiso   1.00
O17    O     0.22890   0.58000   0.86430   0.00000  Uiso   1.00
O18    O     0.34390   0.39790   0.53300   0.00000  Uiso   1.00
C19    C     0.93190   0.67150   0.60740   0.00000  Uiso   1.00
C20    C     0.84010   0.54480   0.41610   0.00000  Uiso   1.00
H21    H     0.77260   0.48510   0.43690   0.00000  Uiso   1.00
C22    C     0.48280   0.45780   0.30430   0.00000  Uiso   1.00
C23    C     0.87950   0.53260   0.33900   0.00000  Uiso   1.00
H24    H     0.83790   0.46510   0.30580   0.00000  Uiso   1.00
C25    C     0.02270   0.60250   0.22430   0.00000  Uiso   1.00
C26    C     0.52800   0.47800   0.22090   0.00000  Uiso   1.00
C27    C     0.87630   0.74650   0.66680   0.00000  Uiso   1.00
H28    H     0.78750   0.79500   0.65600   0.00000  Uiso   1.00
C29    C     0.64450   0.46680   0.68970   0.00000  Uiso   1.00
H30    H     0.73510   0.51370   0.69780   0.00000  Uiso   1.00
C31    C     0.08060   0.67880   0.75790   0.00000  Uiso   1.00
C32    C     0.40290   0.42070   0.45890   0.00000  Uiso   1.00
C33    C     0.06260   0.60190   0.62090   0.00000  Uiso   1.00
H34    H     0.10160   0.55330   0.57890   0.00000  Uiso   1.00
C35    C     0.15400   0.67710   0.84130   0.00000  Uiso   1.00
C36    C     0.89950   0.64540   0.46420   0.00000  Uiso   1.00
C37    C     0.66770   0.40430   0.83550   0.00000  Uiso   1.00
C38    C     0.95090   0.75030   0.74160   0.00000  Uiso   1.00
H39    H     0.91360   0.80210   0.78270   0.00000  Uiso   1.00
C40    C     0.49760   0.33180   0.42720   0.00000  Uiso   1.00
H41    H     0.53390   0.25960   0.45810   0.00000  Uiso   1.00
C42    C     0.58790   0.40160   0.75390   0.00000  Uiso   1.00
C43    C     0.45400   0.33540   0.74070   0.00000  Uiso   1.00
H44    H     0.41530   0.29010   0.78410   0.00000  Uiso   1.00
C45    C     0.04170   0.71630   0.35750   0.00000  Uiso   1.00
H46    H     0.11200   0.77400   0.33730   0.00000  Uiso   1.00
C47    C     0.53830   0.35020   0.35000   0.00000  Uiso   1.00
H48    H     0.60360   0.29060   0.32730   0.00000  Uiso   1.00
C49    C     0.37600   0.33370   0.66670   0.00000  Uiso   1.00
H50    H     0.28370   0.28940   0.65930   0.00000  Uiso   1.00
C51    C     0.38860   0.54380   0.33860   0.00000  Uiso   1.00
H52    H     0.35030   0.61570   0.30820   0.00000  Uiso   1.00
C53    C     0.43420   0.39790   0.60280   0.00000  Uiso   1.00
C54    C     0.00090   0.73020   0.43560   0.00000  Uiso   1.00
H55    H     0.04240   0.79750   0.46900   0.00000  Uiso   1.00
C56    C     0.97990   0.61830   0.30870   0.00000  Uiso   1.00
C57    C     0.56960   0.46380   0.61430   0.00000  Uiso   1.00
H58    H     0.61010   0.50640   0.57040   0.00000  Uiso   1.00
C59    C     0.13530   0.60470   0.69710   0.00000  Uiso   1.00
H60    H     0.22350   0.55550   0.70790   0.00000  Uiso   1.00
C61    C     0.34920   0.52660   0.41690   0.00000  Uiso   1.00
H62    H     0.28640   0.58710   0.44080   0.00000  Uiso   1.00
H63    H     0.09980   0.71340  -0.01340   0.00000  Uiso   1.00
H64    H     0.32070   0.59310  -0.03830   0.00000  Uiso   1.00
H65    H     0.84800   0.49000  -0.04200   0.00000  Uiso   1.00
H66    H     0.60930   0.35840  -0.01870   0.00000  Uiso   1.00
H67    H     0.60200   0.65360   0.10180   0.00000  Uiso   1.00
H68    H     0.11000   0.42700   0.10900   0.00000  Uiso   1.00
H69    H     0.97600   0.51500   0.00900   0.00000  Uiso   1.00
H70    H     0.44580   0.53580   0.01090   0.00000  Uiso   1.00
H71    H     0.53720   0.33070   0.05170   0.00000  Uiso   1.00
H72    H     0.02260   0.73470   0.04910   0.00000  Uiso   1.00
H73    H     0.74650   0.71320   0.11590   0.00000  Uiso   1.00
H74    H     0.23900   0.37100   0.09600   0.00000  Uiso   1.00
Mg75   Mg    0.73190   0.12580   0.88804   0.00000  Uiso   1.00
Mg76   Mg    0.22930   0.95520   0.89201   0.00000  Uiso   1.00
O77    O     0.35710   0.81020   0.11710   0.00000  Uiso   1.00
O78    O     0.86390   0.16480   0.79593   0.00000  Uiso   1.00
O79    O     0.54410   0.06080   0.82314   0.00000  Uiso   1.00
O80    O     0.41040   0.89100   0.97000   0.00000  Uiso   1.00
O81    O     0.91590   0.19290   0.96610   0.00000  Uiso   1.00
O82    O     0.62200   0.09610   0.99070   0.00000  Uiso   1.00
O83    O     0.81010   0.93930   0.89830   0.00000  Uiso   1.00
O84    O     0.11460   0.98620   0.99350   0.00000  Uiso   1.00
O85    O     0.31130   0.14750   0.90780   0.00000  Uiso   1.00
O86    O     0.16000   0.16230   0.46250   0.00000  Uiso   1.00
O87    O     0.24740   0.99680   0.14480   0.00000  Uiso   1.00
O88    O     0.05560   0.03040   0.82276   0.00000  Uiso   1.00
O89    O     0.36000   0.91870   0.80000   0.00000  Uiso   1.00
O90    O     0.86460   0.27460   0.11399   0.00000  Uiso   1.00
O91    O     0.77110   0.08000   0.13570   0.00000  Uiso   1.00
O92    O     0.65610   0.89790   0.46700   0.00000  Uiso   1.00
C93    C     0.06810   0.17150   0.39260   0.00000  Uiso   1.00
C94    C     0.15990   0.04480   0.58390   0.00000  Uiso   1.00
H95    H     0.22740   0.98510   0.56310   0.00000  Uiso   1.00
C96    C     0.51720   0.95780   0.69570   0.00000  Uiso   1.00
C97    C     0.12050   0.03260   0.66100   0.00000  Uiso   1.00
H98    H     0.16210   0.96510   0.69420   0.00000  Uiso   1.00
C99    C     0.97730   0.10250   0.77570   0.00000  Uiso   1.00
C100   C     0.47200   0.97800   0.77910   0.00000  Uiso   1.00
C101   C     0.12370   0.24650   0.33320   0.00000  Uiso   1.00
H102   H     0.21250   0.29500   0.34400   0.00000  Uiso   1.00
C103   C     0.35550   0.96680   0.31030   0.00000  Uiso   1.00
H104   H     0.26490   0.01370   0.30220   0.00000  Uiso   1.00
C105   C     0.91940   0.17880   0.24210   0.00000  Uiso   1.00
C106   C     0.59710   0.92070   0.54110   0.00000  Uiso   1.00
C107   C     0.93740   0.10190   0.37910   0.00000  Uiso   1.00
H108   H     0.89840   0.05330   0.42110   0.00000  Uiso   1.00
C109   C     0.84600   0.17710   0.15870   0.00000  Uiso   1.00
C110   C     0.10050   0.14540   0.53580   0.00000  Uiso   1.00
C111   C     0.33230   0.90430   0.16450   0.00000  Uiso   1.00
C112   C     0.04910   0.25030   0.25840   0.00000  Uiso   1.00
H113   H     0.08640   0.30210   0.21730   0.00000  Uiso   1.00
C114   C     0.50240   0.83180   0.57280   0.00000  Uiso   1.00
H115   H     0.46610   0.75960   0.54190   0.00000  Uiso   1.00
C116   C     0.41210   0.90160   0.24610   0.00000  Uiso   1.00
C117   C     0.54600   0.83540   0.25930   0.00000  Uiso   1.00
H118   H     0.58470   0.79010   0.21590   0.00000  Uiso   1.00
C119   C     0.95830   0.21630   0.64250   0.00000  Uiso   1.00
H120   H     0.88800   0.27400   0.66270   0.00000  Uiso   1.00
C121   C     0.46170   0.85020   0.65000   0.00000  Uiso   1.00
H122   H     0.39640   0.79060   0.67270   0.00000  Uiso   1.00
C123   C     0.62400   0.83370   0.33330   0.00000  Uiso   1.00
H124   H     0.71630   0.78940   0.34070   0.00000  Uiso   1.00
C125   C     0.61140   0.04380   0.66140   0.00000  Uiso   1.00
H126   H     0.64970   0.11570   0.69180   0.00000  Uiso   1.00
C127   C     0.56580   0.89790   0.39720   0.00000  Uiso   1.00
C128   C     0.99910   0.23020   0.56440   0.00000  Uiso   1.00
H129   H     0.95760   0.29750   0.53100   0.00000  Uiso   1.00
C130   C     0.02010   0.11830   0.69130   0.00000  Uiso   1.00
C131   C     0.43040   0.96380   0.38570   0.00000  Uiso   1.00
H132   H     0.38990   0.00640   0.42960   0.00000  Uiso   1.00
C133   C     0.86470   0.10470   0.30290   0.00000  Uiso   1.00
H134   H     0.77650   0.05550   0.29210   0.00000  Uiso   1.00
C135   C     0.65080   0.02660   0.58310   0.00000  Uiso   1.00
H136   H     0.71360   0.08710   0.55920   0.00000  Uiso   1.00
H137   H     0.90020   0.21340   1.01340   0.00000  Uiso   1.00
H138   H     0.67930   0.09310   1.03830   0.00000  Uiso   1.00
H139   H     0.15200   0.99000   1.04200   0.00000  Uiso   1.00
H140   H     0.39070   0.85840   1.01870   0.00000  Uiso   1.00
H141   H     0.39800   0.15360   0.89820   0.00000  Uiso   1.00
H142   H     0.89000   0.92700   0.89100   0.00000  Uiso   1.00
H143   H     0.02400   0.01500   0.99100   0.00000  Uiso   1.00
H144   H     0.55420   0.03580   0.98910   0.00000  Uiso   1.00
H145   H     0.46280   0.83070   0.94830   0.00000  Uiso   1.00
H146   H     0.97740   0.23470   0.95090   0.00000  Uiso   1.00
H147   H     0.25350   0.21320   0.88410   0.00000  Uiso   1.00
H148   H     0.76100   0.87100   0.90400   0.00000  Uiso   1.00
loop_
_geom_bond_atom_site_label_1
_geom_bond_atom_site_label_2
_geom_bond_distance
_geom_bond_site_symmetry_2
_ccdc_geom_bond_type
Mg1    O5      2.053   .     S
Mg1    O7      2.146   .     S
Mg1    O8      2.063   .     S
Mg1    O9      2.054   .     S
Mg1    O77     2.066   .     S
Mg1    O4      2.051   .     S
Mg2    O6      2.117   .     S
Mg2    O10     2.073   .     S
Mg2    O11     2.129   .     S
Mg2    O14     2.030   .     S
Mg2    O15     2.038   .     S
Mg2    O90     2.048   .     S
O3     C37     1.283   .     S
O3     Mg75    2.066   .     S
O4     C25     1.274   .     S
O5     C26     1.274   .     S
O6     H66     0.909   .     S
O6     H71     0.876   .     S
O7     H63     0.839   .     S
O7     H72     0.761   .     S
O8     H64     0.915   .     S
O8     H70     0.872   .     S
O9     H68     0.750   .     S
O9     H74     0.842   .     S
O10    H65     0.854   .     S
O10    H69     0.867   .     S
O11    H67     0.812   .     S
O11    H73     0.926   .     S
O12    C19     1.382   .     S
O12    C36     1.382   .     S
O13    C37     1.253   .     S
O14    C25     1.260   1_655 S
O15    C26     1.252   .     S
O16    C35     1.272   .     S
O16    Mg76    2.048   .     S
O17    C35     1.253   .     S
O18    C32     1.401   .     S
O18    C53     1.370   .     S
C19    C27     1.381   .     S
C19    C33     1.384   1_655 S
C20    H21     0.950   .     S
C20    C23     1.365   .     S
C20    C36     1.395   .     S
C22    C26     1.493   .     S
C22    C47     1.418   .     S
C22    C51     1.382   .     S
C23    H24     0.950   .     S
C23    C56     1.388   .     S
C25    O14     1.260   1_455 S
C25    C56     1.496   1_455 S
C27    H28     0.950   .     S
C27    C38     1.373   .     S
C29    H30     0.951   .     S
C29    C42     1.393   .     S
C29    C57     1.383   .     S
C31    C35     1.495   .     S
C31    C59     1.390   .     S
C31    C38     1.392   1_455 S
C32    C40     1.385   .     S
C32    C61     1.368   .     S
C33    C19     1.384   1_455 S
C33    H34     0.950   .     S
C33    C59     1.386   .     S
C36    C54     1.376   1_655 S
C37    C42     1.492   .     S
C38    H39     0.950   .     S
C38    C31     1.392   1_655 S
C40    H41     0.951   .     S
C40    C47     1.378   .     S
C42    C43     1.390   .     S
C43    H44     0.950   .     S
C43    C49     1.374   .     S
C45    H46     0.950   .     S
C45    C54     1.387   .     S
C45    C56     1.389   1_455 S
C47    H48     0.950   .     S
C49    H50     0.950   .     S
C49    C53     1.390   .     S
C51    H52     0.950   .     S
C51    C61     1.390   .     S
C53    C57     1.398   .     S
C54    C36     1.376   1_455 S
C54    H55     0.950   .     S
C56    C25     1.496   1_655 S
C56    C45     1.389   1_655 S
C57    H58     0.950   .     S
C59    H60     0.950   .     S
C61    H62     0.950   .     S
Mg75   O79     2.053   .     S
Mg75   O81     2.146   .     S
Mg75   O82     2.063   .     S
Mg75   O83     2.054   1_545 S
Mg75   O78     2.051   .     S
Mg76   O80     2.117   .     S
Mg76   O84     2.073   .     S
Mg76   O85     2.129   1_565 S
Mg76   O88     2.030   1_565 S
Mg76   O89     2.038   .     S
O77    C111    1.283   .     S
O78    C99     1.274   .     S
O79    C100    1.274   1_545 S
O80    H140    0.909   .     S
O80    H145    0.876   .     S
O81    H137    0.839   .     S
O81    H146    0.761   .     S
O82    H138    0.915   .     S
O82    H144    0.872   .     S
O83    Mg75    2.054   1_565 S
O83    H142    0.750   .     S
O83    H148    0.842   .     S
O84    H139    0.854   .     S
O84    H143    0.867   1_565 S
O85    Mg76    2.129   1_545 S
O85    H141    0.812   .     S
O85    H147    0.926   .     S
O86    C93     1.382   .     S
O86    C110    1.382   .     S
O87    C111    1.253   .     S
O88    Mg76    2.030   1_545 S
O88    C99     1.260   1_455 S
O89    C100    1.252   .     S
O90    C109    1.272   .     S
O91    C109    1.253   .     S
O92    C106    1.401   .     S
O92    C127    1.370   .     S
C93    C101    1.381   .     S
C93    C107    1.384   1_455 S
C94    H95     0.950   1_545 S
C94    C97     1.365   .     S
C94    C110    1.395   .     S
H95    C94     0.950   1_565 S
C96    C100    1.493   .     S
C96    C121    1.418   .     S
C96    C125    1.382   1_565 S
C97    H98     0.950   1_545 S
C97    C130    1.388   .     S
H98    C97     0.950   1_565 S
C99    O88     1.260   1_655 S
C99    C130    1.496   1_655 S
C100   O79     1.274   1_565 S
C101   H102    0.950   .     S
C101   C112    1.373   .     S
C103   H104    0.951   1_565 S
C103   C116    1.393   .     S
C103   C131    1.383   .     S
H104   C103    0.951   1_545 S
C105   C109    1.495   .     S
C105   C133    1.390   .     S
C105   C112    1.392   1_655 S
C106   C114    1.385   .     S
C106   C135    1.368   1_565 S
C107   C93     1.384   1_655 S
C107   H108    0.950   .     S
C107   C133    1.386   .     S
C110   C128    1.376   1_455 S
C111   C116    1.492   .     S
C112   H113    0.950   .     S
C112   C105    1.392   1_455 S
C114   H115    0.951   .     S
C114   C121    1.378   .     S
C116   C117    1.390   .     S
C117   H118    0.950   .     S
C117   C123    1.374   .     S
C119   H120    0.950   .     S
C119   C128    1.387   .     S
C119   C130    1.389   1_655 S
C121   H122    0.950   .     S
C123   H124    0.950   .     S
C123   C127    1.390   .     S
C125   C96     1.382   1_545 S
C125   H126    0.950   .     S
C125   C135    1.390   .     S
C127   C131    1.398   .     S
C128   C110    1.376   1_655 S
C128   H129    0.950   .     S
C130   C99     1.496   1_455 S
C130   C119    1.389   1_455 S
C131   H132    0.950   1_565 S
H132   C131    0.950   1_545 S
C133   H134    0.950   .     S
C135   C106    1.368   1_545 S
C135   H136    0.950   .     S
H143   O84     0.867   1_545 S
