data_OFIDUF_FSR
_audit_creation_date              2024-06-11
_audit_creation_method            'Materials Studio'
_symmetry_space_group_name_H-M    'P1'
_symmetry_Int_Tables_number       1
_symmetry_cell_setting            triclinic
loop_
_symmetry_equiv_pos_as_xyz
  x,y,z
_cell_length_a                    13.8459
_cell_length_b                    13.8459
_cell_length_c                    21.2017
_cell_angle_alpha                 90.0000
_cell_angle_beta                  90.0000
_cell_angle_gamma                 90.0000
loop_
_atom_site_label
_atom_site_type_symbol
_atom_site_fract_x
_atom_site_fract_y
_atom_site_fract_z
_atom_site_U_iso_or_equiv
_atom_site_adp_type
_atom_site_occupancy
Cu1    Cu    0.01250   0.26451   0.77328   0.03970  Uani   1.00
Cu2    Cu    0.52191   0.40378   0.54233   0.03276  Uani   1.00
N3     N     0.26134   0.45128   0.64728   0.03600  Uani   1.00
N4     N     0.38584   0.55567   0.61219   0.03140  Uani   1.00
O5     O     0.07431   0.28704   0.69156   0.04613  Uani   1.00
O6     O     0.14277   0.40981   0.73994   0.04917  Uani   1.00
O7     O     0.33096   0.60765   0.71068   0.05600  Uani   1.00
S8     S     0.35813   0.39345   0.54571   0.03230  Uani   1.00
C9     C     0.13450   0.35260   0.69399   0.04190  Uani   1.00
C10    C     0.20220   0.36520   0.63820   0.04220  Uani   1.00
H11    H     0.24340   0.30890   0.63430   0.05100  Uiso   1.00
H12    H     0.16490   0.37140   0.59970   0.05100  Uiso   1.00
C13    C     0.32950   0.47230   0.60801   0.02840  Uani   1.00
C14    C     0.38210   0.61380   0.66124   0.03713  Uani   1.00
C15    C     0.44820   0.69890   0.65845   0.04670  Uani   1.00
C16    C     0.43610   0.76800   0.61340   0.06233  Uani   1.00
H17    H     0.38740   0.76210   0.58350   0.07500  Uiso   1.00
C18    C     0.49960   0.85030   0.61270   0.08867  Uani   1.00
H19    H     0.49190   0.89800   0.58230   0.10700  Uiso   1.00
C20    C     0.56910   0.85810   0.65540   0.09233  Uani   1.00
H21    H     0.60870   0.91230   0.65460   0.11100  Uiso   1.00
C22    C     0.58540   0.78800   0.70160   0.07233  Uani   1.00
C23    C     0.66080   0.79360   0.74630   0.09967  Uani   1.00
H24    H     0.70210   0.84660   0.74520   0.11900  Uiso   1.00
C25    C     0.67530   0.72610   0.79020   0.09733  Uani   1.00
H26    H     0.72650   0.73170   0.81830   0.11700  Uiso   1.00
C27    C     0.61300   0.64680   0.79360   0.08867  Uani   1.00
H28    H     0.62210   0.60020   0.82460   0.10600  Uiso   1.00
C29    C     0.53920   0.63740   0.75170   0.06600  Uani   1.00
H30    H     0.49880   0.58390   0.75420   0.07900  Uiso   1.00
C31    C     0.52300   0.70710   0.70484   0.05000  Uani   1.00
Cu32   Cu    0.51250   0.76451   0.27328   0.03970  Uani   1.00
Cu33   Cu    0.02191   0.90378   0.04233   0.03276  Uani   1.00
N34    N     0.76134   0.95128   0.14728   0.03600  Uani   1.00
N35    N     0.88584   0.05567   0.11219   0.03140  Uani   1.00
O36    O     0.57431   0.78704   0.19156   0.04613  Uani   1.00
O37    O     0.64277   0.90981   0.23994   0.04917  Uani   1.00
O38    O     0.83096   0.10765   0.21068   0.05600  Uani   1.00
S39    S     0.85813   0.89345   0.04571   0.03230  Uani   1.00
C40    C     0.63450   0.85260   0.19399   0.04190  Uani   1.00
C41    C     0.70220   0.86520   0.13820   0.04220  Uani   1.00
H42    H     0.74340   0.80890   0.13430   0.05100  Uiso   1.00
H43    H     0.66490   0.87140   0.09970   0.05100  Uiso   1.00
C44    C     0.82950   0.97230   0.10801   0.02840  Uani   1.00
C45    C     0.88210   0.11380   0.16124   0.03713  Uani   1.00
C46    C     0.94820   0.19890   0.15845   0.04670  Uani   1.00
C47    C     0.93610   0.26800   0.11340   0.06233  Uani   1.00
H48    H     0.88740   0.26210   0.08350   0.07500  Uiso   1.00
C49    C     0.99960   0.35030   0.11270   0.08867  Uani   1.00
H50    H     0.99190   0.39800   0.08230   0.10700  Uiso   1.00
C51    C     0.06910   0.35810   0.15540   0.09233  Uani   1.00
H52    H     0.10870   0.41230   0.15460   0.11100  Uiso   1.00
C53    C     0.08540   0.28800   0.20160   0.07233  Uani   1.00
C54    C     0.16080   0.29360   0.24630   0.09967  Uani   1.00
H55    H     0.20210   0.34660   0.24520   0.11900  Uiso   1.00
C56    C     0.17530   0.22610   0.29020   0.09733  Uani   1.00
H57    H     0.22650   0.23170   0.31830   0.11700  Uiso   1.00
C58    C     0.11300   0.14680   0.29360   0.08867  Uani   1.00
H59    H     0.12210   0.10020   0.32460   0.10600  Uiso   1.00
C60    C     0.03920   0.13740   0.25170   0.06600  Uani   1.00
H61    H     0.99880   0.08390   0.25420   0.07900  Uiso   1.00
C62    C     0.02300   0.20710   0.20484   0.05000  Uani   1.00
Cu63   Cu    0.98750   0.73549   0.77328   0.03970  Uani   1.00
Cu64   Cu    0.47809   0.59622   0.54233   0.03276  Uani   1.00
N65    N     0.73866   0.54872   0.64728   0.03600  Uani   1.00
N66    N     0.61416   0.44433   0.61219   0.03140  Uani   1.00
O67    O     0.92569   0.71296   0.69156   0.04613  Uani   1.00
O68    O     0.85723   0.59019   0.73994   0.04917  Uani   1.00
O69    O     0.66904   0.39235   0.71068   0.05600  Uani   1.00
S70    S     0.64187   0.60655   0.54571   0.03230  Uani   1.00
C71    C     0.86550   0.64740   0.69399   0.04190  Uani   1.00
C72    C     0.79780   0.63480   0.63820   0.04220  Uani   1.00
H73    H     0.75660   0.69110   0.63430   0.05100  Uiso   1.00
H74    H     0.83510   0.62860   0.59970   0.05100  Uiso   1.00
C75    C     0.67050   0.52770   0.60801   0.02840  Uani   1.00
C76    C     0.61790   0.38620   0.66124   0.03713  Uani   1.00
C77    C     0.55180   0.30110   0.65845   0.04670  Uani   1.00
C78    C     0.56390   0.23200   0.61340   0.06233  Uani   1.00
H79    H     0.61260   0.23790   0.58350   0.07500  Uiso   1.00
C80    C     0.50040   0.14970   0.61270   0.08867  Uani   1.00
H81    H     0.50810   0.10200   0.58230   0.10700  Uiso   1.00
C82    C     0.43090   0.14190   0.65540   0.09233  Uani   1.00
H83    H     0.39130   0.08770   0.65460   0.11100  Uiso   1.00
C84    C     0.41460   0.21200   0.70160   0.07233  Uani   1.00
C85    C     0.33920   0.20640   0.74630   0.09967  Uani   1.00
H86    H     0.29790   0.15340   0.74520   0.11900  Uiso   1.00
C87    C     0.32470   0.27390   0.79020   0.09733  Uani   1.00
H88    H     0.27350   0.26830   0.81830   0.11700  Uiso   1.00
C89    C     0.38700   0.35320   0.79360   0.08867  Uani   1.00
H90    H     0.37790   0.39980   0.82460   0.10600  Uiso   1.00
C91    C     0.46080   0.36260   0.75170   0.06600  Uani   1.00
H92    H     0.50120   0.41610   0.75420   0.07900  Uiso   1.00
C93    C     0.47700   0.29290   0.70484   0.05000  Uani   1.00
Cu94   Cu    0.48750   0.23549   0.27328   0.03970  Uani   1.00
Cu95   Cu    0.97809   0.09622   0.04233   0.03276  Uani   1.00
N96    N     0.23866   0.04872   0.14728   0.03600  Uani   1.00
N97    N     0.11416   0.94433   0.11219   0.03140  Uani   1.00
O98    O     0.42569   0.21296   0.19156   0.04613  Uani   1.00
O99    O     0.35723   0.09019   0.23994   0.04917  Uani   1.00
O100   O     0.16904   0.89235   0.21068   0.05600  Uani   1.00
S101   S     0.14187   0.10655   0.04571   0.03230  Uani   1.00
C102   C     0.36550   0.14740   0.19399   0.04190  Uani   1.00
C103   C     0.29780   0.13480   0.13820   0.04220  Uani   1.00
H104   H     0.25660   0.19110   0.13430   0.05100  Uiso   1.00
H105   H     0.33510   0.12860   0.09970   0.05100  Uiso   1.00
C106   C     0.17050   0.02770   0.10801   0.02840  Uani   1.00
C107   C     0.11790   0.88620   0.16124   0.03713  Uani   1.00
C108   C     0.05180   0.80110   0.15845   0.04670  Uani   1.00
C109   C     0.06390   0.73200   0.11340   0.06233  Uani   1.00
H110   H     0.11260   0.73790   0.08350   0.07500  Uiso   1.00
C111   C     0.00040   0.64970   0.11270   0.08867  Uani   1.00
H112   H     0.00810   0.60200   0.08230   0.10700  Uiso   1.00
C113   C     0.93090   0.64190   0.15540   0.09233  Uani   1.00
H114   H     0.89130   0.58770   0.15460   0.11100  Uiso   1.00
C115   C     0.91460   0.71200   0.20160   0.07233  Uani   1.00
C116   C     0.83920   0.70640   0.24630   0.09967  Uani   1.00
H117   H     0.79790   0.65340   0.24520   0.11900  Uiso   1.00
C118   C     0.82470   0.77390   0.29020   0.09733  Uani   1.00
H119   H     0.77350   0.76830   0.31830   0.11700  Uiso   1.00
C120   C     0.88700   0.85320   0.29360   0.08867  Uani   1.00
H121   H     0.87790   0.89980   0.32460   0.10600  Uiso   1.00
C122   C     0.96080   0.86260   0.25170   0.06600  Uani   1.00
H123   H     0.00120   0.91610   0.25420   0.07900  Uiso   1.00
C124   C     0.97700   0.79290   0.20484   0.05000  Uani   1.00
Cu125  Cu    0.26451   0.98750   0.22672   0.03970  Uani   1.00
Cu126  Cu    0.40378   0.47809   0.45767   0.03276  Uani   1.00
N127   N     0.45128   0.73866   0.35272   0.03600  Uani   1.00
N128   N     0.55567   0.61416   0.38781   0.03140  Uani   1.00
O129   O     0.28704   0.92569   0.30844   0.04613  Uani   1.00
O130   O     0.40981   0.85723   0.26006   0.04917  Uani   1.00
O131   O     0.60765   0.66904   0.28932   0.05600  Uani   1.00
S132   S     0.39345   0.64187   0.45429   0.03230  Uani   1.00
C133   C     0.35260   0.86550   0.30601   0.04190  Uani   1.00
C134   C     0.36520   0.79780   0.36180   0.04220  Uani   1.00
H135   H     0.30890   0.75660   0.36570   0.05100  Uiso   1.00
H136   H     0.37140   0.83510   0.40030   0.05100  Uiso   1.00
C137   C     0.47230   0.67050   0.39199   0.02840  Uani   1.00
C138   C     0.61380   0.61790   0.33876   0.03713  Uani   1.00
C139   C     0.69890   0.55180   0.34155   0.04670  Uani   1.00
C140   C     0.76800   0.56390   0.38660   0.06233  Uani   1.00
H141   H     0.76210   0.61260   0.41650   0.07500  Uiso   1.00
C142   C     0.85030   0.50040   0.38730   0.08867  Uani   1.00
H143   H     0.89800   0.50810   0.41770   0.10700  Uiso   1.00
C144   C     0.85810   0.43090   0.34460   0.09233  Uani   1.00
H145   H     0.91230   0.39130   0.34540   0.11100  Uiso   1.00
C146   C     0.78800   0.41460   0.29840   0.07233  Uani   1.00
C147   C     0.79360   0.33920   0.25370   0.09967  Uani   1.00
H148   H     0.84660   0.29790   0.25480   0.11900  Uiso   1.00
C149   C     0.72610   0.32470   0.20980   0.09733  Uani   1.00
H150   H     0.73170   0.27350   0.18170   0.11700  Uiso   1.00
C151   C     0.64680   0.38700   0.20640   0.08867  Uani   1.00
H152   H     0.60020   0.37790   0.17540   0.10600  Uiso   1.00
C153   C     0.63740   0.46080   0.24830   0.06600  Uani   1.00
H154   H     0.58390   0.50120   0.24580   0.07900  Uiso   1.00
C155   C     0.70710   0.47700   0.29516   0.05000  Uani   1.00
Cu156  Cu    0.76451   0.48750   0.72672   0.03970  Uani   1.00
Cu157  Cu    0.90378   0.97809   0.95767   0.03276  Uani   1.00
N158   N     0.95128   0.23866   0.85272   0.03600  Uani   1.00
N159   N     0.05567   0.11416   0.88781   0.03140  Uani   1.00
O160   O     0.78704   0.42569   0.80844   0.04613  Uani   1.00
O161   O     0.90981   0.35723   0.76006   0.04917  Uani   1.00
O162   O     0.10765   0.16904   0.78932   0.05600  Uani   1.00
S163   S     0.89345   0.14187   0.95429   0.03230  Uani   1.00
C164   C     0.85260   0.36550   0.80601   0.04190  Uani   1.00
C165   C     0.86520   0.29780   0.86180   0.04220  Uani   1.00
H166   H     0.80890   0.25660   0.86570   0.05100  Uiso   1.00
H167   H     0.87140   0.33510   0.90030   0.05100  Uiso   1.00
C168   C     0.97230   0.17050   0.89199   0.02840  Uani   1.00
C169   C     0.11380   0.11790   0.83876   0.03713  Uani   1.00
C170   C     0.19890   0.05180   0.84155   0.04670  Uani   1.00
C171   C     0.26800   0.06390   0.88660   0.06233  Uani   1.00
H172   H     0.26210   0.11260   0.91650   0.07500  Uiso   1.00
C173   C     0.35030   0.00040   0.88730   0.08867  Uani   1.00
H174   H     0.39800   0.00810   0.91770   0.10700  Uiso   1.00
C175   C     0.35810   0.93090   0.84460   0.09233  Uani   1.00
H176   H     0.41230   0.89130   0.84540   0.11100  Uiso   1.00
C177   C     0.28800   0.91460   0.79840   0.07233  Uani   1.00
C178   C     0.29360   0.83920   0.75370   0.09967  Uani   1.00
H179   H     0.34660   0.79790   0.75480   0.11900  Uiso   1.00
C180   C     0.22610   0.82470   0.70980   0.09733  Uani   1.00
H181   H     0.23170   0.77350   0.68170   0.11700  Uiso   1.00
C182   C     0.14680   0.88700   0.70640   0.08867  Uani   1.00
H183   H     0.10020   0.87790   0.67540   0.10600  Uiso   1.00
C184   C     0.13740   0.96080   0.74830   0.06600  Uani   1.00
H185   H     0.08390   0.00120   0.74580   0.07900  Uiso   1.00
C186   C     0.20710   0.97700   0.79516   0.05000  Uani   1.00
Cu187  Cu    0.73549   0.01250   0.22672   0.03970  Uani   1.00
Cu188  Cu    0.59622   0.52191   0.45767   0.03276  Uani   1.00
N189   N     0.54872   0.26134   0.35272   0.03600  Uani   1.00
N190   N     0.44433   0.38584   0.38781   0.03140  Uani   1.00
O191   O     0.71296   0.07431   0.30844   0.04613  Uani   1.00
O192   O     0.59019   0.14277   0.26006   0.04917  Uani   1.00
O193   O     0.39235   0.33096   0.28932   0.05600  Uani   1.00
S194   S     0.60655   0.35813   0.45429   0.03230  Uani   1.00
C195   C     0.64740   0.13450   0.30601   0.04190  Uani   1.00
C196   C     0.63480   0.20220   0.36180   0.04220  Uani   1.00
H197   H     0.69110   0.24340   0.36570   0.05100  Uiso   1.00
H198   H     0.62860   0.16490   0.40030   0.05100  Uiso   1.00
C199   C     0.52770   0.32950   0.39199   0.02840  Uani   1.00
C200   C     0.38620   0.38210   0.33876   0.03713  Uani   1.00
C201   C     0.30110   0.44820   0.34155   0.04670  Uani   1.00
C202   C     0.23200   0.43610   0.38660   0.06233  Uani   1.00
H203   H     0.23790   0.38740   0.41650   0.07500  Uiso   1.00
C204   C     0.14970   0.49960   0.38730   0.08867  Uani   1.00
H205   H     0.10200   0.49190   0.41770   0.10700  Uiso   1.00
C206   C     0.14190   0.56910   0.34460   0.09233  Uani   1.00
H207   H     0.08770   0.60870   0.34540   0.11100  Uiso   1.00
C208   C     0.21200   0.58540   0.29840   0.07233  Uani   1.00
C209   C     0.20640   0.66080   0.25370   0.09967  Uani   1.00
H210   H     0.15340   0.70210   0.25480   0.11900  Uiso   1.00
C211   C     0.27390   0.67530   0.20980   0.09733  Uani   1.00
H212   H     0.26830   0.72650   0.18170   0.11700  Uiso   1.00
C213   C     0.35320   0.61300   0.20640   0.08867  Uani   1.00
H214   H     0.39980   0.62210   0.17540   0.10600  Uiso   1.00
C215   C     0.36260   0.53920   0.24830   0.06600  Uani   1.00
H216   H     0.41610   0.49880   0.24580   0.07900  Uiso   1.00
C217   C     0.29290   0.52300   0.29516   0.05000  Uani   1.00
Cu218  Cu    0.23549   0.51250   0.72672   0.03970  Uani   1.00
Cu219  Cu    0.09622   0.02191   0.95767   0.03276  Uani   1.00
N220   N     0.04872   0.76134   0.85272   0.03600  Uani   1.00
N221   N     0.94433   0.88584   0.88781   0.03140  Uani   1.00
O222   O     0.21296   0.57431   0.80844   0.04613  Uani   1.00
O223   O     0.09019   0.64277   0.76006   0.04917  Uani   1.00
O224   O     0.89235   0.83096   0.78932   0.05600  Uani   1.00
S225   S     0.10655   0.85813   0.95429   0.03230  Uani   1.00
C226   C     0.14740   0.63450   0.80601   0.04190  Uani   1.00
C227   C     0.13480   0.70220   0.86180   0.04220  Uani   1.00
H228   H     0.19110   0.74340   0.86570   0.05100  Uiso   1.00
H229   H     0.12860   0.66490   0.90030   0.05100  Uiso   1.00
C230   C     0.02770   0.82950   0.89199   0.02840  Uani   1.00
C231   C     0.88620   0.88210   0.83876   0.03713  Uani   1.00
C232   C     0.80110   0.94820   0.84155   0.04670  Uani   1.00
C233   C     0.73200   0.93610   0.88660   0.06233  Uani   1.00
H234   H     0.73790   0.88740   0.91650   0.07500  Uiso   1.00
C235   C     0.64970   0.99960   0.88730   0.08867  Uani   1.00
H236   H     0.60200   0.99190   0.91770   0.10700  Uiso   1.00
C237   C     0.64190   0.06910   0.84460   0.09233  Uani   1.00
H238   H     0.58770   0.10870   0.84540   0.11100  Uiso   1.00
C239   C     0.71200   0.08540   0.79840   0.07233  Uani   1.00
C240   C     0.70640   0.16080   0.75370   0.09967  Uani   1.00
H241   H     0.65340   0.20210   0.75480   0.11900  Uiso   1.00
C242   C     0.77390   0.17530   0.70980   0.09733  Uani   1.00
H243   H     0.76830   0.22650   0.68170   0.11700  Uiso   1.00
C244   C     0.85320   0.11300   0.70640   0.08867  Uani   1.00
H245   H     0.89980   0.12210   0.67540   0.10600  Uiso   1.00
C246   C     0.86260   0.03920   0.74830   0.06600  Uani   1.00
H247   H     0.91610   0.99880   0.74580   0.07900  Uiso   1.00
C248   C     0.79290   0.02300   0.79516   0.05000  Uani   1.00
loop_
_atom_site_aniso_label
_atom_site_aniso_U_11
_atom_site_aniso_U_22
_atom_site_aniso_U_33
_atom_site_aniso_U_12
_atom_site_aniso_U_13
_atom_site_aniso_U_23
Cu1       0.04760   0.04390   0.02761   0.00040   0.01023   0.01129
Cu2       0.03990   0.03476   0.02363  -0.00030  -0.00175  -0.00217
N3        0.04620   0.03670   0.02510  -0.00530   0.00790  -0.00640
N4        0.03910   0.03120   0.02390  -0.00010   0.00360  -0.00280
O5        0.05780   0.04770   0.03290  -0.01420   0.01600   0.00620
O6        0.05710   0.05640   0.03400  -0.00850   0.01840  -0.00500
O7        0.06340   0.06000   0.04460  -0.01570   0.02150  -0.02530
S8        0.04090   0.03300   0.02300  -0.00490   0.00780  -0.00480
C9        0.05400   0.04490   0.02680  -0.00020   0.01050   0.00340
C10       0.05500   0.04250   0.02910  -0.01010   0.01600  -0.00350
C13       0.03380   0.03120   0.02020   0.00240   0.00370  -0.00160
C14       0.04070   0.03600   0.03470   0.00150   0.00440  -0.00730
C15       0.05300   0.04010   0.04700  -0.00670   0.01570  -0.01520
C16       0.08100   0.04600   0.06000  -0.00460   0.01000  -0.00900
C18       0.12400   0.05100   0.09100  -0.01900   0.01100   0.00400
C20       0.11500   0.05900   0.10300  -0.03600   0.00600  -0.01000
C22       0.07700   0.06300   0.07700  -0.02300  -0.00100  -0.02000
C23       0.09000   0.09400   0.11500  -0.03500  -0.00600  -0.03400
C25       0.08200   0.11900   0.09100  -0.01700  -0.02600  -0.02000
C27       0.09200   0.10200   0.07200   0.00100  -0.01500  -0.00800
C29       0.06100   0.06600   0.07100  -0.00500  -0.00400  -0.01600
C31       0.05200   0.04600   0.05200  -0.00530   0.00930  -0.01990
Cu32      0.04760   0.04390   0.02761   0.00040   0.01023   0.01129
Cu33      0.03990   0.03476   0.02363  -0.00030  -0.00175  -0.00217
N34       0.04620   0.03670   0.02510  -0.00530   0.00790  -0.00640
N35       0.03910   0.03120   0.02390  -0.00010   0.00360  -0.00280
O36       0.05780   0.04770   0.03290  -0.01420   0.01600   0.00620
O37       0.05710   0.05640   0.03400  -0.00850   0.01840  -0.00500
O38       0.06340   0.06000   0.04460  -0.01570   0.02150  -0.02530
S39       0.04090   0.03300   0.02300  -0.00490   0.00780  -0.00480
C40       0.05400   0.04490   0.02680  -0.00020   0.01050   0.00340
C41       0.05500   0.04250   0.02910  -0.01010   0.01600  -0.00350
C44       0.03380   0.03120   0.02020   0.00240   0.00370  -0.00160
C45       0.04070   0.03600   0.03470   0.00150   0.00440  -0.00730
C46       0.05300   0.04010   0.04700  -0.00670   0.01570  -0.01520
C47       0.08100   0.04600   0.06000  -0.00460   0.01000  -0.00900
C49       0.12400   0.05100   0.09100  -0.01900   0.01100   0.00400
C51       0.11500   0.05900   0.10300  -0.03600   0.00600  -0.01000
C53       0.07700   0.06300   0.07700  -0.02300  -0.00100  -0.02000
C54       0.09000   0.09400   0.11500  -0.03500  -0.00600  -0.03400
C56       0.08200   0.11900   0.09100  -0.01700  -0.02600  -0.02000
C58       0.09200   0.10200   0.07200   0.00100  -0.01500  -0.00800
C60       0.06100   0.06600   0.07100  -0.00500  -0.00400  -0.01600
C62       0.05200   0.04600   0.05200  -0.00530   0.00930  -0.01990
Cu63      0.04760   0.04390   0.02761   0.00040  -0.01023  -0.01129
Cu64      0.03990   0.03476   0.02363  -0.00030   0.00175   0.00217
N65       0.04620   0.03670   0.02510  -0.00530  -0.00790   0.00640
N66       0.03910   0.03120   0.02390  -0.00010  -0.00360   0.00280
O67       0.05780   0.04770   0.03290  -0.01420  -0.01600  -0.00620
O68       0.05710   0.05640   0.03400  -0.00850  -0.01840   0.00500
O69       0.06340   0.06000   0.04460  -0.01570  -0.02150   0.02530
S70       0.04090   0.03300   0.02300  -0.00490  -0.00780   0.00480
C71       0.05400   0.04490   0.02680  -0.00020  -0.01050  -0.00340
C72       0.05500   0.04250   0.02910  -0.01010  -0.01600   0.00350
C75       0.03380   0.03120   0.02020   0.00240  -0.00370   0.00160
C76       0.04070   0.03600   0.03470   0.00150  -0.00440   0.00730
C77       0.05300   0.04010   0.04700  -0.00670  -0.01570   0.01520
C78       0.08100   0.04600   0.06000  -0.00460  -0.01000   0.00900
C80       0.12400   0.05100   0.09100  -0.01900  -0.01100  -0.00400
C82       0.11500   0.05900   0.10300  -0.03600  -0.00600   0.01000
C84       0.07700   0.06300   0.07700  -0.02300   0.00100   0.02000
C85       0.09000   0.09400   0.11500  -0.03500   0.00600   0.03400
C87       0.08200   0.11900   0.09100  -0.01700   0.02600   0.02000
C89       0.09200   0.10200   0.07200   0.00100   0.01500   0.00800
C91       0.06100   0.06600   0.07100  -0.00500   0.00400   0.01600
C93       0.05200   0.04600   0.05200  -0.00530  -0.00930   0.01990
Cu94      0.04760   0.04390   0.02761   0.00040  -0.01023  -0.01129
Cu95      0.03990   0.03476   0.02363  -0.00030   0.00175   0.00217
N96       0.04620   0.03670   0.02510  -0.00530  -0.00790   0.00640
N97       0.03910   0.03120   0.02390  -0.00010  -0.00360   0.00280
O98       0.05780   0.04770   0.03290  -0.01420  -0.01600  -0.00620
O99       0.05710   0.05640   0.03400  -0.00850  -0.01840   0.00500
O100      0.06340   0.06000   0.04460  -0.01570  -0.02150   0.02530
S101      0.04090   0.03300   0.02300  -0.00490  -0.00780   0.00480
C102      0.05400   0.04490   0.02680  -0.00020  -0.01050  -0.00340
C103      0.05500   0.04250   0.02910  -0.01010  -0.01600   0.00350
C106      0.03380   0.03120   0.02020   0.00240  -0.00370   0.00160
C107      0.04070   0.03600   0.03470   0.00150  -0.00440   0.00730
C108      0.05300   0.04010   0.04700  -0.00670  -0.01570   0.01520
C109      0.08100   0.04600   0.06000  -0.00460  -0.01000   0.00900
C111      0.12400   0.05100   0.09100  -0.01900  -0.01100  -0.00400
C113      0.11500   0.05900   0.10300  -0.03600  -0.00600   0.01000
C115      0.07700   0.06300   0.07700  -0.02300   0.00100   0.02000
C116      0.09000   0.09400   0.11500  -0.03500   0.00600   0.03400
C118      0.08200   0.11900   0.09100  -0.01700   0.02600   0.02000
C120      0.09200   0.10200   0.07200   0.00100   0.01500   0.00800
C122      0.06100   0.06600   0.07100  -0.00500   0.00400   0.01600
C124      0.05200   0.04600   0.05200  -0.00530  -0.00930   0.01990
Cu125     0.04390   0.04760   0.02761  -0.00040  -0.01129   0.01023
Cu126     0.03476   0.03990   0.02363   0.00030   0.00217  -0.00175
N127      0.03670   0.04620   0.02510   0.00530   0.00640   0.00790
N128      0.03120   0.03910   0.02390   0.00010   0.00280   0.00360
O129      0.04770   0.05780   0.03290   0.01420  -0.00620   0.01600
O130      0.05640   0.05710   0.03400   0.00850   0.00500   0.01840
O131      0.06000   0.06340   0.04460   0.01570   0.02530   0.02150
S132      0.03300   0.04090   0.02300   0.00490   0.00480   0.00780
C133      0.04490   0.05400   0.02680   0.00020  -0.00340   0.01050
C134      0.04250   0.05500   0.02910   0.01010   0.00350   0.01600
C137      0.03120   0.03380   0.02020  -0.00240   0.00160   0.00370
C138      0.03600   0.04070   0.03470  -0.00150   0.00730   0.00440
C139      0.04010   0.05300   0.04700   0.00670   0.01520   0.01570
C140      0.04600   0.08100   0.06000   0.00460   0.00900   0.01000
C142      0.05100   0.12400   0.09100   0.01900  -0.00400   0.01100
C144      0.05900   0.11500   0.10300   0.03600   0.01000   0.00600
C146      0.06300   0.07700   0.07700   0.02300   0.02000  -0.00100
C147      0.09400   0.09000   0.11500   0.03500   0.03400  -0.00600
C149      0.11900   0.08200   0.09100   0.01700   0.02000  -0.02600
C151      0.10200   0.09200   0.07200  -0.00100   0.00800  -0.01500
C153      0.06600   0.06100   0.07100   0.00500   0.01600  -0.00400
C155      0.04600   0.05200   0.05200   0.00530   0.01990   0.00930
Cu156     0.04390   0.04760   0.02761  -0.00040  -0.01129   0.01023
Cu157     0.03476   0.03990   0.02363   0.00030   0.00217  -0.00175
N158      0.03670   0.04620   0.02510   0.00530   0.00640   0.00790
N159      0.03120   0.03910   0.02390   0.00010   0.00280   0.00360
O160      0.04770   0.05780   0.03290   0.01420  -0.00620   0.01600
O161      0.05640   0.05710   0.03400   0.00850   0.00500   0.01840
O162      0.06000   0.06340   0.04460   0.01570   0.02530   0.02150
S163      0.03300   0.04090   0.02300   0.00490   0.00480   0.00780
C164      0.04490   0.05400   0.02680   0.00020  -0.00340   0.01050
C165      0.04250   0.05500   0.02910   0.01010   0.00350   0.01600
C168      0.03120   0.03380   0.02020  -0.00240   0.00160   0.00370
C169      0.03600   0.04070   0.03470  -0.00150   0.00730   0.00440
C170      0.04010   0.05300   0.04700   0.00670   0.01520   0.01570
C171      0.04600   0.08100   0.06000   0.00460   0.00900   0.01000
C173      0.05100   0.12400   0.09100   0.01900  -0.00400   0.01100
C175      0.05900   0.11500   0.10300   0.03600   0.01000   0.00600
C177      0.06300   0.07700   0.07700   0.02300   0.02000  -0.00100
C178      0.09400   0.09000   0.11500   0.03500   0.03400  -0.00600
C180      0.11900   0.08200   0.09100   0.01700   0.02000  -0.02600
C182      0.10200   0.09200   0.07200  -0.00100   0.00800  -0.01500
C184      0.06600   0.06100   0.07100   0.00500   0.01600  -0.00400
C186      0.04600   0.05200   0.05200   0.00530   0.01990   0.00930
Cu187     0.04390   0.04760   0.02761  -0.00040   0.01129  -0.01023
Cu188     0.03476   0.03990   0.02363   0.00030  -0.00217   0.00175
N189      0.03670   0.04620   0.02510   0.00530  -0.00640  -0.00790
N190      0.03120   0.03910   0.02390   0.00010  -0.00280  -0.00360
O191      0.04770   0.05780   0.03290   0.01420   0.00620  -0.01600
O192      0.05640   0.05710   0.03400   0.00850  -0.00500  -0.01840
O193      0.06000   0.06340   0.04460   0.01570  -0.02530  -0.02150
S194      0.03300   0.04090   0.02300   0.00490  -0.00480  -0.00780
C195      0.04490   0.05400   0.02680   0.00020   0.00340  -0.01050
C196      0.04250   0.05500   0.02910   0.01010  -0.00350  -0.01600
C199      0.03120   0.03380   0.02020  -0.00240  -0.00160  -0.00370
C200      0.03600   0.04070   0.03470  -0.00150  -0.00730  -0.00440
C201      0.04010   0.05300   0.04700   0.00670  -0.01520  -0.01570
C202      0.04600   0.08100   0.06000   0.00460  -0.00900  -0.01000
C204      0.05100   0.12400   0.09100   0.01900   0.00400  -0.01100
C206      0.05900   0.11500   0.10300   0.03600  -0.01000  -0.00600
C208      0.06300   0.07700   0.07700   0.02300  -0.02000   0.00100
C209      0.09400   0.09000   0.11500   0.03500  -0.03400   0.00600
C211      0.11900   0.08200   0.09100   0.01700  -0.02000   0.02600
C213      0.10200   0.09200   0.07200  -0.00100  -0.00800   0.01500
C215      0.06600   0.06100   0.07100   0.00500  -0.01600   0.00400
C217      0.04600   0.05200   0.05200   0.00530  -0.01990  -0.00930
Cu218     0.04390   0.04760   0.02761  -0.00040   0.01129  -0.01023
Cu219     0.03476   0.03990   0.02363   0.00030  -0.00217   0.00175
N220      0.03670   0.04620   0.02510   0.00530  -0.00640  -0.00790
N221      0.03120   0.03910   0.02390   0.00010  -0.00280  -0.00360
O222      0.04770   0.05780   0.03290   0.01420   0.00620  -0.01600
O223      0.05640   0.05710   0.03400   0.00850  -0.00500  -0.01840
O224      0.06000   0.06340   0.04460   0.01570  -0.02530  -0.02150
S225      0.03300   0.04090   0.02300   0.00490  -0.00480  -0.00780
C226      0.04490   0.05400   0.02680   0.00020   0.00340  -0.01050
C227      0.04250   0.05500   0.02910   0.01010  -0.00350  -0.01600
C230      0.03120   0.03380   0.02020  -0.00240  -0.00160  -0.00370
C231      0.03600   0.04070   0.03470  -0.00150  -0.00730  -0.00440
C232      0.04010   0.05300   0.04700   0.00670  -0.01520  -0.01570
C233      0.04600   0.08100   0.06000   0.00460  -0.00900  -0.01000
C235      0.05100   0.12400   0.09100   0.01900   0.00400  -0.01100
C237      0.05900   0.11500   0.10300   0.03600  -0.01000  -0.00600
C239      0.06300   0.07700   0.07700   0.02300  -0.02000   0.00100
C240      0.09400   0.09000   0.11500   0.03500  -0.03400   0.00600
C242      0.11900   0.08200   0.09100   0.01700  -0.02000   0.02600
C244      0.10200   0.09200   0.07200  -0.00100  -0.00800   0.01500
C246      0.06600   0.06100   0.07100   0.00500  -0.01600   0.00400
C248      0.04600   0.05200   0.05200   0.00530  -0.01990  -0.00930
loop_
_geom_bond_atom_site_label_1
_geom_bond_atom_site_label_2
_geom_bond_distance
_geom_bond_site_symmetry_2
_ccdc_geom_bond_type
Cu1    O5      1.957   .     S
Cu1    O6      2.793   .     S
Cu1    N158    1.919   1_455 S
Cu1    O161    1.936   1_455 S
Cu1    O162    1.897   .     S
Cu2    S8      2.273   .     S
Cu2    N66     2.035   .     S
Cu2    S194    2.293   .     S
N3     C10     1.459   .     S
N3     C13     1.292   .     S
N3     Cu218   1.919   .     S
N4     C13     1.396   .     S
N4     C14     1.316   .     S
N4     Cu64    2.035   .     S
O5     C9      1.233   .     S
O6     C9      1.261   .     S
O6     Cu218   1.936   .     S
O7     C14     1.268   .     S
O7     Cu218   1.897   .     S
S8     C13     1.759   .     S
S8     Cu126   2.293   .     S
C9     C10     1.519   .     S
C10    H11     0.969   .     S
C10    H12     0.970   .     S
C14    C15     1.493   .     S
C15    C16     1.362   .     S
C15    C31     1.433   .     S
C16    H17     0.929   .     S
C16    C18     1.439   .     S
C18    H19     0.929   .     S
C18    C20     1.326   .     S
C20    H21     0.930   .     S
C20    C22     1.397   .     S
C22    C23     1.412   .     S
C22    C31     1.416   .     S
C23    H24     0.931   .     S
C23    C25     1.334   .     S
C25    H26     0.929   .     S
C25    C27     1.398   .     S
C27    H28     0.930   .     S
C27    C29     1.360   .     S
C29    H30     0.930   .     S
C29    C31     1.403   .     S
Cu32   O36     1.957   .     S
Cu32   O37     2.793   .     S
Cu32   N127    1.919   .     S
Cu32   O130    1.936   .     S
Cu32   O131    1.897   .     S
Cu33   S39     2.273   1_455 S
Cu33   N97     2.035   .     S
Cu33   S225    2.293   1_554 S
N34    C41     1.459   .     S
N34    C44     1.292   .     S
N34    Cu187   1.919   1_565 S
N35    C44     1.396   1_545 S
N35    C45     1.316   .     S
N35    Cu95    2.035   .     S
O36    C40     1.233   .     S
O37    C40     1.261   .     S
O37    Cu187   1.936   1_565 S
O38    C45     1.268   .     S
O38    Cu187   1.897   .     S
S39    Cu33    2.273   1_655 S
S39    C44     1.759   .     S
S39    Cu157   2.293   1_554 S
C40    C41     1.519   .     S
C41    H42     0.969   .     S
C41    H43     0.970   .     S
C44    N35     1.396   1_565 S
C45    C46     1.493   .     S
C46    C47     1.362   .     S
C46    C62     1.433   1_655 S
C47    H48     0.929   .     S
C47    C49     1.439   .     S
C49    H50     0.929   .     S
C49    C51     1.326   1_655 S
C51    C49     1.326   1_455 S
C51    H52     0.930   .     S
C51    C53     1.397   .     S
C53    C54     1.412   .     S
C53    C62     1.416   .     S
C54    H55     0.931   .     S
C54    C56     1.334   .     S
C56    H57     0.929   .     S
C56    C58     1.398   .     S
C58    H59     0.930   .     S
C58    C60     1.360   .     S
C60    H61     0.930   1_455 S
C60    C62     1.403   .     S
H61    C60     0.930   1_655 S
C62    C46     1.433   1_455 S
Cu63   O67     1.957   .     S
Cu63   O68     2.793   .     S
Cu63   N220    1.919   1_655 S
Cu63   O223    1.936   1_655 S
Cu63   O224    1.897   .     S
Cu64   S70     2.273   .     S
Cu64   S132    2.293   .     S
N65    C72     1.459   .     S
N65    C75     1.292   .     S
N65    Cu156   1.919   .     S
N66    C75     1.396   .     S
N66    C76     1.316   .     S
O67    C71     1.233   .     S
O68    C71     1.261   .     S
O68    Cu156   1.936   .     S
O69    C76     1.268   .     S
O69    Cu156   1.897   .     S
S70    C75     1.759   .     S
S70    Cu188   2.293   .     S
C71    C72     1.519   .     S
C72    H73     0.969   .     S
C72    H74     0.970   .     S
C76    C77     1.493   .     S
C77    C78     1.362   .     S
C77    C93     1.433   .     S
C78    H79     0.929   .     S
C78    C80     1.439   .     S
C80    H81     0.929   .     S
C80    C82     1.326   .     S
C82    H83     0.930   .     S
C82    C84     1.397   .     S
C84    C85     1.412   .     S
C84    C93     1.416   .     S
C85    H86     0.931   .     S
C85    C87     1.334   .     S
C87    H88     0.929   .     S
C87    C89     1.398   .     S
C89    H90     0.930   .     S
C89    C91     1.360   .     S
C91    H92     0.930   .     S
C91    C93     1.403   .     S
Cu94   O98     1.957   .     S
Cu94   O99     2.793   .     S
Cu94   N189    1.919   .     S
Cu94   O192    1.936   .     S
Cu94   O193    1.897   .     S
Cu95   S101    2.273   1_655 S
Cu95   S163    2.293   1_554 S
N96    C103    1.459   .     S
N96    C106    1.292   .     S
N96    Cu125   1.919   1_545 S
N97    C106    1.396   1_565 S
N97    C107    1.316   .     S
O98    C102    1.233   .     S
O99    C102    1.261   .     S
O99    Cu125   1.936   1_545 S
O100   C107    1.268   .     S
O100   Cu125   1.897   .     S
S101   Cu95    2.273   1_455 S
S101   C106    1.759   .     S
S101   Cu219   2.293   1_554 S
C102   C103    1.519   .     S
C103   H104    0.969   .     S
C103   H105    0.970   .     S
C106   N97     1.396   1_545 S
C107   C108    1.493   .     S
C108   C109    1.362   .     S
C108   C124    1.433   1_455 S
C109   H110    0.929   .     S
C109   C111    1.439   .     S
C111   H112    0.929   .     S
C111   C113    1.326   1_455 S
C113   C111    1.326   1_655 S
C113   H114    0.930   .     S
C113   C115    1.397   .     S
C115   C116    1.412   .     S
C115   C124    1.416   .     S
C116   H117    0.931   .     S
C116   C118    1.334   .     S
C118   H119    0.929   .     S
C118   C120    1.398   .     S
C120   H121    0.930   .     S
C120   C122    1.360   .     S
C122   H123    0.930   1_655 S
C122   C124    1.403   .     S
H123   C122    0.930   1_455 S
C124   C108    1.433   1_655 S
Cu125  O129    1.957   .     S
Cu125  O130    2.793   .     S
Cu125  N96     1.919   1_565 S
Cu125  O99     1.936   1_565 S
Cu126  S132    2.273   .     S
Cu126  N190    2.035   .     S
N127   C134    1.459   .     S
N127   C137    1.292   .     S
N128   C137    1.396   .     S
N128   C138    1.316   .     S
N128   Cu188   2.035   .     S
O129   C133    1.233   .     S
O130   C133    1.261   .     S
O131   C138    1.268   .     S
S132   C137    1.759   .     S
C133   C134    1.519   .     S
C134   H135    0.969   .     S
C134   H136    0.970   .     S
C138   C139    1.493   .     S
C139   C140    1.362   .     S
C139   C155    1.433   .     S
C140   H141    0.929   .     S
C140   C142    1.439   .     S
C142   H143    0.929   .     S
C142   C144    1.326   .     S
C144   H145    0.930   .     S
C144   C146    1.397   .     S
C146   C147    1.412   .     S
C146   C155    1.416   .     S
C147   H148    0.931   .     S
C147   C149    1.334   .     S
C149   H150    0.929   .     S
C149   C151    1.398   .     S
C151   H152    0.930   .     S
C151   C153    1.360   .     S
C153   H154    0.930   .     S
C153   C155    1.403   .     S
Cu156  O160    1.957   .     S
Cu156  O161    2.793   .     S
Cu157  S163    2.273   1_565 S
Cu157  N221    2.035   .     S
Cu157  S39     2.293   1_556 S
N158   C165    1.459   .     S
N158   C168    1.292   .     S
N158   Cu1     1.919   1_655 S
N159   C168    1.396   1_455 S
N159   C169    1.316   .     S
N159   Cu219   2.035   .     S
O160   C164    1.233   .     S
O161   C164    1.261   .     S
O161   Cu1     1.936   1_655 S
O162   C169    1.268   .     S
S163   Cu157   2.273   1_545 S
S163   C168    1.759   .     S
S163   Cu95    2.293   1_556 S
C164   C165    1.519   .     S
C165   H166    0.969   .     S
C165   H167    0.970   .     S
C168   N159    1.396   1_655 S
C169   C170    1.493   .     S
C170   C171    1.362   .     S
C170   C186    1.433   1_545 S
C171   H172    0.929   .     S
C171   C173    1.439   .     S
C173   H174    0.929   .     S
C173   C175    1.326   1_545 S
C175   C173    1.326   1_565 S
C175   H176    0.930   .     S
C175   C177    1.397   .     S
C177   C178    1.412   .     S
C177   C186    1.416   .     S
C178   H179    0.931   .     S
C178   C180    1.334   .     S
C180   H181    0.929   .     S
C180   C182    1.398   .     S
C182   H183    0.930   .     S
C182   C184    1.360   .     S
C184   H185    0.930   1_565 S
C184   C186    1.403   .     S
H185   C184    0.930   1_545 S
C186   C170    1.433   1_565 S
Cu187  O191    1.957   .     S
Cu187  O192    2.793   .     S
Cu187  N34     1.919   1_545 S
Cu187  O37     1.936   1_545 S
Cu188  S194    2.273   .     S
N189   C196    1.459   .     S
N189   C199    1.292   .     S
N190   C199    1.396   .     S
N190   C200    1.316   .     S
O191   C195    1.233   .     S
O192   C195    1.261   .     S
O193   C200    1.268   .     S
S194   C199    1.759   .     S
C195   C196    1.519   .     S
C196   H197    0.969   .     S
C196   H198    0.970   .     S
C200   C201    1.493   .     S
C201   C202    1.362   .     S
C201   C217    1.433   .     S
C202   H203    0.929   .     S
C202   C204    1.439   .     S
C204   H205    0.929   .     S
C204   C206    1.326   .     S
C206   H207    0.930   .     S
C206   C208    1.397   .     S
C208   C209    1.412   .     S
C208   C217    1.416   .     S
C209   H210    0.931   .     S
C209   C211    1.334   .     S
C211   H212    0.929   .     S
C211   C213    1.398   .     S
C213   H214    0.930   .     S
C213   C215    1.360   .     S
C215   H216    0.930   .     S
C215   C217    1.403   .     S
Cu218  O222    1.957   .     S
Cu218  O223    2.793   .     S
Cu219  S225    2.273   1_545 S
Cu219  S101    2.293   1_556 S
N220   C227    1.459   .     S
N220   C230    1.292   .     S
N220   Cu63    1.919   1_455 S
N221   C230    1.396   1_655 S
N221   C231    1.316   .     S
O222   C226    1.233   .     S
O223   C226    1.261   .     S
O223   Cu63    1.936   1_455 S
O224   C231    1.268   .     S
S225   Cu219   2.273   1_565 S
S225   C230    1.759   .     S
S225   Cu33    2.293   1_556 S
C226   C227    1.519   .     S
C227   H228    0.969   .     S
C227   H229    0.970   .     S
C230   N221    1.396   1_455 S
C231   C232    1.493   .     S
C232   C233    1.362   .     S
C232   C248    1.433   1_565 S
C233   H234    0.929   .     S
C233   C235    1.439   .     S
C235   H236    0.929   .     S
C235   C237    1.326   1_565 S
C237   C235    1.326   1_545 S
C237   H238    0.930   .     S
C237   C239    1.397   .     S
C239   C240    1.412   .     S
C239   C248    1.416   .     S
C240   H241    0.931   .     S
C240   C242    1.334   .     S
C242   H243    0.929   .     S
C242   C244    1.398   .     S
C244   H245    0.930   .     S
C244   C246    1.360   .     S
C246   H247    0.930   1_545 S
C246   C248    1.403   .     S
H247   C246    0.930   1_565 S
C248   C232    1.433   1_545 S
