data_OFIMOJ_FSR
_audit_creation_date              2024-06-11
_audit_creation_method            'Materials Studio'
_symmetry_space_group_name_H-M    'P1'
_symmetry_Int_Tables_number       1
_symmetry_cell_setting            triclinic
loop_
_symmetry_equiv_pos_as_xyz
  x,y,z
_cell_length_a                    11.2730
_cell_length_b                    16.6600
_cell_length_c                    16.7470
_cell_angle_alpha                 104.3880
_cell_angle_beta                  96.6480
_cell_angle_gamma                 106.7520
loop_
_atom_site_label
_atom_site_type_symbol
_atom_site_fract_x
_atom_site_fract_y
_atom_site_fract_z
_atom_site_U_iso_or_equiv
_atom_site_adp_type
_atom_site_occupancy
Ni1    Ni    0.61307   0.73785   0.49159   0.00000  Uiso   1.00
S2     S     0.09429   0.86071   0.37647   0.00000  Uiso   1.00
O3     O     0.79930   0.74156   0.49488   0.00000  Uiso   1.00
O4     O     0.43110   0.73465   0.49400   0.00000  Uiso   1.00
O5     O     0.88640   0.87771   0.49275   0.00000  Uiso   1.00
O6     O     0.67750   0.86982   0.56169   0.00000  Uiso   1.00
H7     H     0.75176   0.90227   0.55886   0.00000  Uiso   1.00
H8     H     0.63027   0.90285   0.56074   0.00000  Uiso   1.00
O9     O     0.10840   0.95211   0.42098   0.00000  Uiso   1.00
O10    O     0.97120   0.81260   0.32379   0.00000  Uiso   1.00
O11    O     0.20070   0.85913   0.33501   0.00000  Uiso   1.00
N12    N     0.88010   0.00106   0.39530   0.00000  Uiso   1.00
N13    N     0.55970   0.60549   0.42593   0.00000  Uiso   1.00
C14    C     0.89290   0.80480   0.49656   0.00000  Uiso   1.00
N15    N     0.43570   0.19010   0.86087   0.00000  Uiso   1.00
O16    O     0.58030   0.12060   0.86152   0.00000  Uiso   1.00
N17    N     0.67520   0.08450   0.22660   0.00000  Uiso   1.00
C18    C     0.22160   0.79120   0.47310   0.00000  Uiso   1.00
H19    H     0.28211   0.80299   0.43880   0.00000  Uiso   1.00
C20    C     0.04360   0.75030   0.56740   0.00000  Uiso   1.00
H21    H     0.98069   0.73275   0.59856   0.00000  Uiso   1.00
C22    C     0.37320   0.74250   0.55450   0.00000  Uiso   1.00
C23    C     0.01840   0.78880   0.50600   0.00000  Uiso   1.00
C24    C     0.24770   0.75590   0.53660   0.00000  Uiso   1.00
N25    N     0.54370   0.36820   0.25930   0.00000  Uiso   1.00
C26    C     0.76150   0.00100   0.39780   0.00000  Uiso   1.00
H27    H     0.72481   0.98375   0.44177   0.00000  Uiso   1.00
C28    C     0.15860   0.73680   0.58470   0.00000  Uiso   1.00
H29    H     0.17578   0.71432   0.62994   0.00000  Uiso   1.00
C30    C     0.11210   0.80990   0.45729   0.00000  Uiso   1.00
C31    C     0.42680   0.20020   0.78050   0.00000  Uiso   1.00
C32    C     0.68970   0.02410   0.34170   0.00000  Uiso   1.00
H33    H     0.60590   0.02230   0.34637   0.00000  Uiso   1.00
C34    C     0.50740   0.18420   0.72590   0.00000  Uiso   1.00
H35    H     0.57283   0.16202   0.74090   0.00000  Uiso   1.00
C36    C     0.92660   0.02360   0.33120   0.00000  Uiso   1.00
H37    H     0.00955   0.02281   0.32674   0.00000  Uiso   1.00
C38    C     0.57630   0.20640   0.16600   0.00000  Uiso   1.00
H39    H     0.59339   0.21789   0.22539   0.00000  Uiso   1.00
O40    O     0.75980   0.06440   0.11147   0.00000  Uiso   1.00
C41    C     0.74280   0.05030   0.27740   0.00000  Uiso   1.00
C42    C     0.61410   0.14280   0.11540   0.00000  Uiso   1.00
C43    C     0.62890   0.55700   0.44490   0.00000  Uiso   1.00
H44    H     0.68590   0.57893   0.49778   0.00000  Uiso   1.00
C45    C     0.86230   0.04780   0.27090   0.00000  Uiso   1.00
H46    H     0.89965   0.06241   0.22610   0.00000  Uiso   1.00
C47    C     0.52700   0.17310   0.99250   0.00000  Uiso   1.00
C48    C     0.53960   0.44480   0.31470   0.00000  Uiso   1.00
C49    C     0.59150   0.12730   0.02870   0.00000  Uiso   1.00
H50    H     0.62017   0.08529   0.99406   0.00000  Uiso   1.00
C51    C     0.33220   0.23040   0.75220   0.00000  Uiso   1.00
H52    H     0.27329   0.24090   0.78626   0.00000  Uiso   1.00
O53    O     0.38650   0.34340   0.15140   0.00000  Uiso   1.00
C54    C     0.48780   0.23480   0.04320   0.00000  Uiso   1.00
H55    H     0.44232   0.26555   0.01849   0.00000  Uiso   1.00
C56    C     0.47630   0.57010   0.35390   0.00000  Uiso   1.00
H57    H     0.42291   0.60184   0.34061   0.00000  Uiso   1.00
C58    C     0.62200   0.47740   0.39220   0.00000  Uiso   1.00
H59    H     0.67280   0.44524   0.40862   0.00000  Uiso   1.00
C60    C     0.68940   0.09300   0.15040   0.00000  Uiso   1.00
C61    C     0.51420   0.25280   0.13070   0.00000  Uiso   1.00
C62    C     0.51650   0.15830   0.89860   0.00000  Uiso   1.00
C63    C     0.46120   0.49070   0.29690   0.00000  Uiso   1.00
H64    H     0.39837   0.46821   0.24658   0.00000  Uiso   1.00
C65    C     0.47510   0.32480   0.18100   0.00000  Uiso   1.00
C66    C     0.49030   0.20100   0.65000   0.00000  Uiso   1.00
H67    H     0.54741   0.19089   0.61427   0.00000  Uiso   1.00
C68    C     0.32400   0.24490   0.67580   0.00000  Uiso   1.00
H69    H     0.25943   0.26689   0.65886   0.00000  Uiso   1.00
O70    O     0.62990   0.70863   0.60637   0.00000  Uiso   1.00
H71    H     0.56504   0.71287   0.62864   0.00000  Uiso   1.00
H72    H     0.69454   0.74897   0.64206   0.00000  Uiso   1.00
N73    N     0.40110   0.23024   0.62238   0.00000  Uiso   1.00
O74    O     0.41340   0.74070   0.62655   0.00000  Uiso   1.00
H75    H     0.61000   0.36100   0.27200   0.00000  Uiso   1.00
H76    H     0.62320   0.09710   0.24370   0.00000  Uiso   1.00
H77    H     0.38100   0.19900   0.88500   0.00000  Uiso   1.00
Ni78   Ni    0.38693   0.26215   0.50841   0.00000  Uiso   1.00
S79    S     0.90571   0.13929   0.62353   0.00000  Uiso   1.00
O80    O     0.20070   0.25844   0.50512   0.00000  Uiso   1.00
O81    O     0.56890   0.26535   0.50600   0.00000  Uiso   1.00
O82    O     0.11360   0.12229   0.50725   0.00000  Uiso   1.00
O83    O     0.32250   0.13018   0.43831   0.00000  Uiso   1.00
H84    H     0.24824   0.09773   0.44114   0.00000  Uiso   1.00
H85    H     0.36973   0.09715   0.43926   0.00000  Uiso   1.00
O86    O     0.89160   0.04789   0.57902   0.00000  Uiso   1.00
O87    O     0.02880   0.18740   0.67621   0.00000  Uiso   1.00
O88    O     0.79930   0.14087   0.66499   0.00000  Uiso   1.00
N89    N     0.11990   0.99894   0.60470   0.00000  Uiso   1.00
N90    N     0.44030   0.39451   0.57407   0.00000  Uiso   1.00
C91    C     0.10710   0.19520   0.50344   0.00000  Uiso   1.00
N92    N     0.56430   0.80990   0.13913   0.00000  Uiso   1.00
O93    O     0.41970   0.87940   0.13848   0.00000  Uiso   1.00
N94    N     0.32480   0.91550   0.77340   0.00000  Uiso   1.00
C95    C     0.77840   0.20880   0.52690   0.00000  Uiso   1.00
H96    H     0.71789   0.19701   0.56120   0.00000  Uiso   1.00
C97    C     0.95640   0.24970   0.43260   0.00000  Uiso   1.00
H98    H     0.01931   0.26725   0.40145   0.00000  Uiso   1.00
C99    C     0.62680   0.25750   0.44550   0.00000  Uiso   1.00
C100   C     0.98160   0.21120   0.49400   0.00000  Uiso   1.00
C101   C     0.75230   0.24410   0.46340   0.00000  Uiso   1.00
N102   N     0.45630   0.63180   0.74070   0.00000  Uiso   1.00
C103   C     0.23850   0.99900   0.60220   0.00000  Uiso   1.00
H104   H     0.27519   0.01625   0.55823   0.00000  Uiso   1.00
C105   C     0.84140   0.26320   0.41530   0.00000  Uiso   1.00
H106   H     0.82422   0.28568   0.37006   0.00000  Uiso   1.00
C107   C     0.88790   0.19010   0.54271   0.00000  Uiso   1.00
C108   C     0.57320   0.79980   0.21950   0.00000  Uiso   1.00
C109   C     0.31030   0.97590   0.65830   0.00000  Uiso   1.00
H110   H     0.39410   0.97770   0.65363   0.00000  Uiso   1.00
C111   C     0.49260   0.81580   0.27410   0.00000  Uiso   1.00
H112   H     0.42717   0.83798   0.25910   0.00000  Uiso   1.00
C113   C     0.07340   0.97640   0.66880   0.00000  Uiso   1.00
H114   H     0.99045   0.97719   0.67326   0.00000  Uiso   1.00
C115   C     0.42370   0.79360   0.83400   0.00000  Uiso   1.00
H116   H     0.40660   0.78211   0.77461   0.00000  Uiso   1.00
O117   O     0.24020   0.93560   0.88853   0.00000  Uiso   1.00
C118   C     0.25720   0.94970   0.72260   0.00000  Uiso   1.00
C119   C     0.38590   0.85720   0.88460   0.00000  Uiso   1.00
C120   C     0.37110   0.44300   0.55510   0.00000  Uiso   1.00
H121   H     0.31410   0.42107   0.50222   0.00000  Uiso   1.00
C122   C     0.13770   0.95220   0.72910   0.00000  Uiso   1.00
H123   H     0.10035   0.93759   0.77390   0.00000  Uiso   1.00
C124   C     0.47300   0.82690   0.00750   0.00000  Uiso   1.00
C125   C     0.46040   0.55520   0.68530   0.00000  Uiso   1.00
C126   C     0.40850   0.87270   0.97130   0.00000  Uiso   1.00
H127   H     0.37983   0.91471   0.00594   0.00000  Uiso   1.00
C128   C     0.66780   0.76960   0.24780   0.00000  Uiso   1.00
H129   H     0.72671   0.75910   0.21374   0.00000  Uiso   1.00
O130   O     0.61350   0.65660   0.84860   0.00000  Uiso   1.00
C131   C     0.51220   0.76520   0.95680   0.00000  Uiso   1.00
H132   H     0.55767   0.73445   0.98151   0.00000  Uiso   1.00
C133   C     0.52370   0.42990   0.64610   0.00000  Uiso   1.00
H134   H     0.57709   0.39816   0.65939   0.00000  Uiso   1.00
C135   C     0.37800   0.52260   0.60780   0.00000  Uiso   1.00
H136   H     0.32720   0.55475   0.59138   0.00000  Uiso   1.00
C137   C     0.31060   0.90700   0.84960   0.00000  Uiso   1.00
C138   C     0.48580   0.74720   0.86930   0.00000  Uiso   1.00
C139   C     0.48350   0.84170   0.10140   0.00000  Uiso   1.00
C140   C     0.53880   0.50930   0.70310   0.00000  Uiso   1.00
H141   H     0.60162   0.53179   0.75342   0.00000  Uiso   1.00
C142   C     0.52490   0.67520   0.81900   0.00000  Uiso   1.00
C143   C     0.50970   0.79900   0.35000   0.00000  Uiso   1.00
H144   H     0.45259   0.80911   0.38573   0.00000  Uiso   1.00
C145   C     0.67600   0.75510   0.32420   0.00000  Uiso   1.00
H146   H     0.74057   0.73311   0.34114   0.00000  Uiso   1.00
O147   O     0.37010   0.29137   0.39363   0.00000  Uiso   1.00
H148   H     0.43496   0.28713   0.37136   0.00000  Uiso   1.00
H149   H     0.30546   0.25103   0.35794   0.00000  Uiso   1.00
N150   N     0.59890   0.76976   0.37762   0.00000  Uiso   1.00
O151   O     0.58660   0.25930   0.37345   0.00000  Uiso   1.00
H152   H     0.39000   0.63900   0.72800   0.00000  Uiso   1.00
H153   H     0.37680   0.90290   0.75630   0.00000  Uiso   1.00
H154   H     0.61900   0.80100   0.11500   0.00000  Uiso   1.00
Ni155  Ni    0.00000   0.00000   0.50000   0.00000  Uiso   1.00
loop_
_geom_bond_atom_site_label_1
_geom_bond_atom_site_label_2
_geom_bond_distance
_geom_bond_site_symmetry_2
_ccdc_geom_bond_type
Ni1    O4      2.042   .     S
Ni1    O6      2.083   .     S
Ni1    N13     2.076   .     S
Ni1    O70     2.098   .     S
Ni1    O3      2.076   .     S
Ni1    N150    2.106   .     S
S2     O9      1.473   .     S
S2     O10     1.439   1_455 S
S2     O11     1.457   .     S
S2     C30     1.787   .     S
O3     C14     1.250   .     S
O4     C22     1.267   .     S
O5     Ni155   2.035   1_665 S
O5     C14     1.254   .     S
O6     H7      0.870   .     S
O6     H8      0.870   .     S
O9     Ni155   2.072   1_565 S
O10    S2      1.439   1_655 S
N12    C26     1.342   .     S
N12    C36     1.336   .     S
N12    Ni155   2.093   1_655 S
N13    C43     1.340   .     S
N13    C56     1.323   .     S
C14    C23     1.511   1_655 S
N15    C31     1.393   .     S
N15    C62     1.349   .     S
N15    H77     0.804   .     S
O16    C62     1.211   .     S
N17    C41     1.404   .     S
N17    C60     1.341   .     S
N17    H76     0.741   .     S
C18    H19     0.950   .     S
C18    C24     1.379   .     S
C18    C30     1.370   .     S
C20    H21     0.950   1_455 S
C20    C23     1.384   .     S
C20    C28     1.389   .     S
H21    C20     0.950   1_655 S
C22    C24     1.503   .     S
C22    O74     1.250   .     S
C23    C14     1.511   1_455 S
C23    C30     1.426   .     S
C24    C28     1.375   .     S
N25    C48     1.395   .     S
N25    C65     1.346   .     S
N25    H75     0.804   .     S
C26    H27     0.950   1_545 S
C26    C32     1.367   .     S
H27    C26     0.950   1_565 S
C28    H29     0.949   .     S
C31    C34     1.394   .     S
C31    C51     1.388   .     S
C32    H33     0.949   .     S
C32    C41     1.393   .     S
C34    H35     0.951   .     S
C34    C66     1.372   .     S
C36    H37     0.950   1_655 S
C36    C45     1.382   .     S
H37    C36     0.950   1_455 S
C38    H39     0.950   .     S
C38    C42     1.386   .     S
C38    C61     1.371   .     S
O40    C60     1.211   .     S
C41    C45     1.376   .     S
C42    C49     1.389   .     S
C42    C60     1.512   .     S
C43    H44     0.950   .     S
C43    C58     1.374   .     S
C45    H46     0.951   .     S
C47    C49     1.388   1_556 S
C47    C54     1.374   1_556 S
C47    C62     1.515   .     S
C48    C58     1.386   .     S
C48    C63     1.377   .     S
C49    C47     1.388   1_554 S
C49    H50     0.950   1_554 S
H50    C49     0.950   1_556 S
C51    H52     0.950   .     S
C51    C68     1.358   .     S
O53    C65     1.216   .     S
C54    C47     1.374   1_554 S
C54    H55     0.951   .     S
C54    C61     1.398   .     S
C56    H57     0.950   .     S
C56    C63     1.377   .     S
C58    H59     0.951   .     S
C61    C65     1.494   .     S
C63    H64     0.951   .     S
C66    H67     0.950   .     S
C66    N73     1.323   .     S
C68    H69     0.950   .     S
C68    N73     1.345   .     S
O70    H71     0.871   .     S
O70    H72     0.870   .     S
N73    Ni78    2.106   .     S
Ni78   O81     2.042   .     S
Ni78   O83     2.083   .     S
Ni78   N90     2.076   .     S
Ni78   O147    2.098   .     S
Ni78   O80     2.076   .     S
S79    O86     1.473   .     S
S79    O87     1.439   1_655 S
S79    O88     1.457   .     S
S79    C107    1.787   .     S
O80    C91     1.250   .     S
O81    C99     1.267   .     S
O82    Ni155   2.035   .     S
O82    C91     1.254   .     S
O83    H84     0.870   .     S
O83    H85     0.870   .     S
O86    Ni155   2.072   1_655 S
O87    S79     1.439   1_455 S
N89    C103    1.342   .     S
N89    C113    1.336   .     S
N89    Ni155   2.093   1_565 S
N90    C120    1.340   .     S
N90    C133    1.323   .     S
C91    C100    1.511   1_455 S
N92    C108    1.393   .     S
N92    C139    1.349   .     S
N92    H154    0.804   .     S
O93    C139    1.211   .     S
N94    C118    1.404   .     S
N94    C137    1.341   .     S
N94    H153    0.741   .     S
C95    H96     0.950   .     S
C95    C101    1.379   .     S
C95    C107    1.370   .     S
C97    H98     0.950   1_655 S
C97    C100    1.384   .     S
C97    C105    1.389   .     S
H98    C97     0.950   1_455 S
C99    C101    1.503   .     S
C99    O151    1.250   .     S
C100   C91     1.511   1_655 S
C100   C107    1.426   .     S
C101   C105    1.375   .     S
N102   C125    1.395   .     S
N102   C142    1.346   .     S
N102   H152    0.804   .     S
C103   H104    0.950   1_565 S
C103   C109    1.367   .     S
H104   C103    0.950   1_545 S
C105   H106    0.949   .     S
C108   C111    1.394   .     S
C108   C128    1.388   .     S
C109   H110    0.949   .     S
C109   C118    1.393   .     S
C111   H112    0.951   .     S
C111   C143    1.372   .     S
C113   H114    0.950   1_455 S
C113   C122    1.382   .     S
H114   C113    0.950   1_655 S
C115   H116    0.950   .     S
C115   C119    1.386   .     S
C115   C138    1.371   .     S
O117   C137    1.211   .     S
C118   C122    1.376   .     S
C119   C126    1.389   .     S
C119   C137    1.512   .     S
C120   H121    0.950   .     S
C120   C135    1.374   .     S
C122   H123    0.951   .     S
C124   C126    1.388   1_554 S
C124   C131    1.374   1_554 S
C124   C139    1.515   .     S
C125   C135    1.386   .     S
C125   C140    1.377   .     S
C126   C124    1.388   1_556 S
C126   H127    0.950   1_556 S
H127   C126    0.950   1_554 S
C128   H129    0.950   .     S
C128   C145    1.358   .     S
O130   C142    1.216   .     S
C131   C124    1.374   1_556 S
C131   H132    0.951   .     S
C131   C138    1.398   .     S
C133   H134    0.950   .     S
C133   C140    1.377   .     S
C135   H136    0.951   .     S
C138   C142    1.494   .     S
C140   H141    0.951   .     S
C143   H144    0.950   .     S
C143   N150    1.323   .     S
C145   H146    0.950   .     S
C145   N150    1.345   .     S
O147   H148    0.871   .     S
O147   H149    0.870   .     S
Ni155  O5      2.035   1_445 S
Ni155  O9      2.072   1_545 S
Ni155  O86     2.072   1_455 S
Ni155  N12     2.093   1_455 S
Ni155  N89     2.093   1_545 S
