data_OJOZOE_FSR
_audit_creation_date              2024-06-11
_audit_creation_method            'Materials Studio'
_symmetry_space_group_name_H-M    'P1'
_symmetry_Int_Tables_number       1
_symmetry_cell_setting            triclinic
loop_
_symmetry_equiv_pos_as_xyz
  x,y,z
_cell_length_a                    6.1139
_cell_length_b                    8.7718
_cell_length_c                    13.1543
_cell_angle_alpha                 101.0480
_cell_angle_beta                  101.8050
_cell_angle_gamma                 96.5460
loop_
_atom_site_label
_atom_site_type_symbol
_atom_site_fract_x
_atom_site_fract_y
_atom_site_fract_z
_atom_site_U_iso_or_equiv
_atom_site_adp_type
_atom_site_occupancy
Gd1    Gd    0.74716   0.21931   0.72457   0.00000  Uiso   1.00
O2     O     0.50170   0.80020   0.45150   0.00000  Uiso   1.00
O3     O     0.06500   0.10660   0.80050   0.00000  Uiso   1.00
O4     O     0.76690   0.35690   0.90970   0.00000  Uiso   1.00
H5     H     0.68300   0.33000   0.95100   0.00000  Uiso   1.00
O6     O     0.06730   0.45510   0.81370   0.00000  Uiso   1.00
H7     H     0.17300   0.50900   0.79100   0.00000  Uiso   1.00
O8     O     0.65950   0.47920   0.71240   0.00000  Uiso   1.00
O9     O     0.63020   0.02900   0.82930   0.00000  Uiso   1.00
H10    H     0.67400   0.93600   0.82500   0.00000  Uiso   1.00
O11    O     0.50530   0.21270   0.01030   0.00000  Uiso   1.00
H12    H     0.45960   0.24640   0.06510   0.00000  Uiso   1.00
O13    O     0.65830   0.71380   0.81540   0.00000  Uiso   1.00
O14    O     0.36390   0.20070   0.74420   0.00000  Uiso   1.00
O15    O     0.99270   0.25350   0.61070   0.00000  Uiso   1.00
H16    H     0.94080   0.18710   0.54980   0.00000  Uiso   1.00
H17    H     0.12650   0.23680   0.63980   0.00000  Uiso   1.00
O18    O     0.67800   0.95860   0.60990   0.00000  Uiso   1.00
C19    C     0.40840   0.00830   0.85050   0.00000  Uiso   1.00
H20    H     0.33550   0.89630   0.82030   0.00000  Uiso   1.00
C21    C     0.26780   0.11520   0.79400   0.00000  Uiso   1.00
C22    C     0.41720   0.04790   0.97040   0.00000  Uiso   1.00
H23    H     0.26240   0.02390   0.98300   0.00000  Uiso   1.00
C24    C     0.89550   0.50790   0.95870   0.00000  Uiso   1.00
H25    H     0.80060   0.57720   0.99370   0.00000  Uiso   1.00
C26    C     0.55030   0.92860   0.51770   0.00000  Uiso   1.00
C27    C     0.74360   0.59130   0.79160   0.00000  Uiso   1.00
C28    C     0.96070   0.57170   0.86740   0.00000  Uiso   1.00
H29    H     0.06600   0.67400   0.89470   0.00000  Uiso   1.00
Gd30   Gd    0.25284   0.78069   0.27543   0.00000  Uiso   1.00
O31    O     0.49830   0.19980   0.54850   0.00000  Uiso   1.00
O32    O     0.93500   0.89340   0.19950   0.00000  Uiso   1.00
O33    O     0.23310   0.64310   0.09030   0.00000  Uiso   1.00
H34    H     0.31700   0.67000   0.04900   0.00000  Uiso   1.00
O35    O     0.93270   0.54490   0.18630   0.00000  Uiso   1.00
H36    H     0.82700   0.49100   0.20900   0.00000  Uiso   1.00
O37    O     0.34050   0.52080   0.28760   0.00000  Uiso   1.00
O38    O     0.36980   0.97100   0.17070   0.00000  Uiso   1.00
H39    H     0.32600   0.06400   0.17500   0.00000  Uiso   1.00
O40    O     0.49470   0.78730   0.98970   0.00000  Uiso   1.00
H41    H     0.54040   0.75360   0.93490   0.00000  Uiso   1.00
O42    O     0.34170   0.28620   0.18460   0.00000  Uiso   1.00
O43    O     0.63610   0.79930   0.25580   0.00000  Uiso   1.00
O44    O     0.00730   0.74650   0.38930   0.00000  Uiso   1.00
H45    H     0.05920   0.81290   0.45020   0.00000  Uiso   1.00
H46    H     0.87350   0.76320   0.36020   0.00000  Uiso   1.00
O47    O     0.32200   0.04140   0.39010   0.00000  Uiso   1.00
C48    C     0.59160   0.99170   0.14950   0.00000  Uiso   1.00
H49    H     0.66450   0.10370   0.17970   0.00000  Uiso   1.00
C50    C     0.73220   0.88480   0.20600   0.00000  Uiso   1.00
C51    C     0.58280   0.95210   0.02960   0.00000  Uiso   1.00
H52    H     0.73760   0.97610   0.01700   0.00000  Uiso   1.00
C53    C     0.10450   0.49210   0.04130   0.00000  Uiso   1.00
H54    H     0.19940   0.42280   0.00630   0.00000  Uiso   1.00
C55    C     0.44970   0.07140   0.48230   0.00000  Uiso   1.00
C56    C     0.25640   0.40870   0.20840   0.00000  Uiso   1.00
C57    C     0.03930   0.42830   0.13260   0.00000  Uiso   1.00
H58    H     0.93400   0.32600   0.10530   0.00000  Uiso   1.00
loop_
_geom_bond_atom_site_label_1
_geom_bond_atom_site_label_2
_geom_bond_distance
_geom_bond_site_symmetry_2
_ccdc_geom_bond_type
Gd1    O4      2.474   .     S
Gd1    O6      2.587   1_655 S
Gd1    O8      2.428   .     S
Gd1    O9      2.492   .     S
Gd1    O14     2.400   .     S
Gd1    O15     2.362   .     S
Gd1    O18     2.425   1_545 S
Gd1    O31     2.461   .     S
Gd1    O3      2.403   1_655 S
O2     C26     1.248   .     S
O2     Gd30    2.461   .     S
O3     C21     1.255   .     S
O3     Gd1     2.403   1_455 S
O4     H5      0.866   .     S
O4     C24     1.420   .     S
O6     Gd1     2.587   1_455 S
O6     H7      0.891   .     S
O6     C28     1.426   1_455 S
O8     C27     1.261   .     S
O9     H10     0.882   1_545 S
O9     C19     1.438   .     S
H10    O9      0.882   1_565 S
O11    H12     0.839   .     S
O11    C22     1.439   1_554 S
O13    C27     1.261   .     S
O14    C21     1.258   .     S
O15    H16     0.870   .     S
O15    H17     0.871   1_655 S
H17    O15     0.871   1_455 S
O18    Gd1     2.425   1_565 S
O18    C26     1.262   .     S
C19    H20     1.000   1_545 S
C19    C21     1.536   .     S
C19    C22     1.537   .     S
H20    C19     1.000   1_565 S
C22    O11     1.439   1_556 S
C22    H23     1.000   .     S
C22    C51     1.568   1_546 S
C24    H25     1.000   .     S
C24    C53     1.537   1_656 S
C24    C28     1.522   .     S
C26    C55     1.564   1_565 S
C27    C28     1.537   .     S
C28    O6      1.426   1_655 S
C28    H29     0.999   1_655 S
H29    C28     0.999   1_455 S
Gd30   O33     2.474   .     S
Gd30   O35     2.587   1_455 S
Gd30   O37     2.428   .     S
Gd30   O38     2.492   .     S
Gd30   O43     2.400   .     S
Gd30   O44     2.362   .     S
Gd30   O47     2.425   1_565 S
Gd30   O32     2.403   1_455 S
O31    C55     1.248   .     S
O32    C50     1.255   .     S
O32    Gd30    2.403   1_655 S
O33    H34     0.866   .     S
O33    C53     1.420   .     S
O35    Gd30    2.587   1_655 S
O35    H36     0.891   .     S
O35    C57     1.426   1_655 S
O37    C56     1.261   .     S
O38    H39     0.882   1_565 S
O38    C48     1.438   .     S
H39    O38     0.882   1_545 S
O40    H41     0.839   .     S
O40    C51     1.439   1_556 S
O42    C56     1.261   .     S
O43    C50     1.258   .     S
O44    H45     0.870   .     S
O44    H46     0.871   1_455 S
H46    O44     0.871   1_655 S
O47    Gd30    2.425   1_545 S
O47    C55     1.262   .     S
C48    H49     1.000   1_565 S
C48    C50     1.536   .     S
C48    C51     1.537   .     S
H49    C48     1.000   1_545 S
C51    O40     1.439   1_554 S
C51    H52     1.000   .     S
C51    C22     1.568   1_564 S
C53    H54     1.000   .     S
C53    C24     1.537   1_454 S
C53    C57     1.522   .     S
C55    C26     1.564   1_545 S
C56    C57     1.537   .     S
C57    O35     1.426   1_455 S
C57    H58     0.999   1_455 S
H58    C57     0.999   1_655 S
