data_OJOZIY_FSR
_audit_creation_date              2024-06-11
_audit_creation_method            'Materials Studio'
_symmetry_space_group_name_H-M    'P1'
_symmetry_Int_Tables_number       1
_symmetry_cell_setting            triclinic
loop_
_symmetry_equiv_pos_as_xyz
  x,y,z
_cell_length_a                    8.5359
_cell_length_b                    8.7588
_cell_length_c                    9.7871
_cell_angle_alpha                 98.2710
_cell_angle_beta                  112.3820
_cell_angle_gamma                 108.7740
loop_
_atom_site_label
_atom_site_type_symbol
_atom_site_fract_x
_atom_site_fract_y
_atom_site_fract_z
_atom_site_U_iso_or_equiv
_atom_site_adp_type
_atom_site_occupancy
Dy1    Dy    0.29873   0.56630   0.38107   0.00000  Uiso   1.00
O2     O     0.20888   0.47421   0.56847   0.00000  Uiso   1.00
O3     O     0.49468   0.59865   0.25817   0.00000  Uiso   1.00
H4     H     0.60100   0.59300   0.29300   0.00000  Uiso   1.00
O5     O     0.23867   0.75127   0.97887   0.00000  Uiso   1.00
O6     O     0.01765   0.46783   0.67605   0.00000  Uiso   1.00
O7     O     0.39427   0.34145   0.41651   0.00000  Uiso   1.00
O8     O     0.28090   0.07378   0.41597   0.00000  Uiso   1.00
O9     O     0.32290   0.81529   0.52213   0.00000  Uiso   1.00
H10    H     0.28800   0.80010   0.59900   0.00000  Uiso   1.00
H11    H     0.24870   0.85950   0.46070   0.00000  Uiso   1.00
O12    O     0.21765   0.68033   0.18293   0.00000  Uiso   1.00
O13    O     0.25127   0.39278   0.92711   0.00000  Uiso   1.00
H14    H     0.16930   0.40560   0.85420   0.00000  Uiso   1.00
O15    O     0.09926   0.30537   0.18340   0.00000  Uiso   1.00
H16    H     0.98800   0.28800   0.11500   0.00000  Uiso   1.00
O17    O     0.24258   0.11934   0.04310   0.00000  Uiso   1.00
H18    H     0.23140   0.20440   0.01790   0.00000  Uiso   1.00
C19    C     0.06510   0.48320   0.57120   0.00000  Uiso   1.00
C20    C     0.29400   0.70220   0.09510   0.00000  Uiso   1.00
C21    C     0.42520   0.53410   0.98356   0.00000  Uiso   1.00
H22    H     0.42170   0.59010   0.90100   0.00000  Uiso   1.00
C23    C     0.26910   0.18650   0.35880   0.00000  Uiso   1.00
C24    C     0.46430   0.66340   0.12886   0.00000  Uiso   1.00
H25    H     0.57490   0.76950   0.15570   0.00000  Uiso   1.00
C26    C     0.09580   0.14860   0.20930   0.00000  Uiso   1.00
H27    H     0.98260   0.09010   0.22170   0.00000  Uiso   1.00
C28    C     0.09310   0.03340   0.07390   0.00000  Uiso   1.00
H29    H     0.11040   0.93380   0.10490   0.00000  Uiso   1.00
Dy30   Dy    0.70127   0.43370   0.61893   0.00000  Uiso   1.00
O31    O     0.79112   0.52579   0.43153   0.00000  Uiso   1.00
O32    O     0.50532   0.40135   0.74183   0.00000  Uiso   1.00
H33    H     0.39900   0.40700   0.70700   0.00000  Uiso   1.00
O34    O     0.76133   0.24873   0.02113   0.00000  Uiso   1.00
O35    O     0.98235   0.53217   0.32395   0.00000  Uiso   1.00
O36    O     0.60573   0.65855   0.58349   0.00000  Uiso   1.00
O37    O     0.71910   0.92622   0.58403   0.00000  Uiso   1.00
O38    O     0.67710   0.18471   0.47787   0.00000  Uiso   1.00
H39    H     0.71200   0.19990   0.40100   0.00000  Uiso   1.00
H40    H     0.75130   0.14050   0.53930   0.00000  Uiso   1.00
O41    O     0.78235   0.31967   0.81707   0.00000  Uiso   1.00
O42    O     0.74873   0.60722   0.07289   0.00000  Uiso   1.00
H43    H     0.83070   0.59440   0.14580   0.00000  Uiso   1.00
O44    O     0.90074   0.69463   0.81660   0.00000  Uiso   1.00
H45    H     0.01200   0.71200   0.88500   0.00000  Uiso   1.00
O46    O     0.75742   0.88066   0.95690   0.00000  Uiso   1.00
H47    H     0.76860   0.79560   0.98210   0.00000  Uiso   1.00
C48    C     0.93490   0.51680   0.42880   0.00000  Uiso   1.00
C49    C     0.70600   0.29780   0.90490   0.00000  Uiso   1.00
C50    C     0.57480   0.46590   0.01644   0.00000  Uiso   1.00
H51    H     0.57830   0.40990   0.09900   0.00000  Uiso   1.00
C52    C     0.73090   0.81350   0.64120   0.00000  Uiso   1.00
C53    C     0.53570   0.33660   0.87114   0.00000  Uiso   1.00
H54    H     0.42510   0.23050   0.84430   0.00000  Uiso   1.00
C55    C     0.90420   0.85140   0.79070   0.00000  Uiso   1.00
H56    H     0.01740   0.90990   0.77830   0.00000  Uiso   1.00
C57    C     0.90690   0.96660   0.92610   0.00000  Uiso   1.00
H58    H     0.88960   0.06620   0.89510   0.00000  Uiso   1.00
loop_
_geom_bond_atom_site_label_1
_geom_bond_atom_site_label_2
_geom_bond_distance
_geom_bond_site_symmetry_2
_ccdc_geom_bond_type
Dy1    O2      2.388   .     S
Dy1    O3      2.377   .     S
Dy1    O7      2.383   .     S
Dy1    O9      2.309   .     S
Dy1    O12     2.284   .     S
Dy1    O15     2.362   .     S
Dy1    O35     2.445   1_455 S
Dy1    O36     2.381   .     S
O2     C19     1.265   .     S
O3     H4      0.860   .     S
O3     C24     1.429   .     S
O5     C20     1.251   1_556 S
O6     C19     1.248   .     S
O6     Dy30    2.445   1_455 S
O7     C23     1.300   .     S
O7     Dy30    2.381   .     S
O8     C23     1.216   .     S
O9     H10     0.920   .     S
O9     H11     0.921   .     S
O12    C20     1.263   .     S
O13    H14     0.839   .     S
O13    C21     1.427   .     S
O15    H16     0.876   1_455 S
O15    C26     1.425   .     S
H16    O15     0.876   1_655 S
O17    H18     0.840   .     S
O17    C28     1.423   .     S
C19    C48     1.553   1_455 S
C20    O5      1.251   1_554 S
C20    C24     1.524   .     S
C21    H22     1.000   .     S
C21    C50     1.525   1_556 S
C21    C24     1.532   1_556 S
C23    C26     1.528   .     S
C24    H25     1.000   .     S
C24    C21     1.532   1_554 S
C26    H27     1.000   1_455 S
C26    C28     1.534   .     S
H27    C26     1.000   1_655 S
C28    H29     1.000   1_545 S
C28    C57     1.539   1_444 S
H29    C28     1.000   1_565 S
Dy30   O31     2.388   .     S
Dy30   O32     2.377   .     S
Dy30   O36     2.383   .     S
Dy30   O38     2.309   .     S
Dy30   O41     2.284   .     S
Dy30   O44     2.362   .     S
Dy30   O6      2.445   1_655 S
O31    C48     1.265   .     S
O32    H33     0.860   .     S
O32    C53     1.429   .     S
O34    C49     1.251   1_554 S
O35    C48     1.248   .     S
O35    Dy1     2.445   1_655 S
O36    C52     1.300   .     S
O37    C52     1.216   .     S
O38    H39     0.920   .     S
O38    H40     0.921   .     S
O41    C49     1.263   .     S
O42    H43     0.839   .     S
O42    C50     1.427   .     S
O44    H45     0.876   1_655 S
O44    C55     1.425   .     S
H45    O44     0.876   1_455 S
O46    H47     0.840   .     S
O46    C57     1.423   .     S
C48    C19     1.553   1_655 S
C49    O34     1.251   1_556 S
C49    C53     1.524   .     S
C50    H51     1.000   .     S
C50    C21     1.525   1_554 S
C50    C53     1.532   1_554 S
C52    C55     1.528   .     S
C53    H54     1.000   .     S
C53    C50     1.532   1_556 S
C55    H56     1.000   1_655 S
C55    C57     1.534   .     S
H56    C55     1.000   1_455 S
C57    H58     1.000   1_565 S
C57    C28     1.539   1_666 S
H58    C57     1.000   1_545 S
