data_OMEZIS_FSR
_audit_creation_date              2024-06-11
_audit_creation_method            'Materials Studio'
_symmetry_space_group_name_H-M    'P1'
_symmetry_Int_Tables_number       1
_symmetry_cell_setting            triclinic
loop_
_symmetry_equiv_pos_as_xyz
  x,y,z
_cell_length_a                    9.7141
_cell_length_b                    12.2458
_cell_length_c                    12.5115
_cell_angle_alpha                 88.1790
_cell_angle_beta                  67.7700
_cell_angle_gamma                 70.8060
loop_
_atom_site_label
_atom_site_type_symbol
_atom_site_fract_x
_atom_site_fract_y
_atom_site_fract_z
_atom_site_U_iso_or_equiv
_atom_site_adp_type
_atom_site_occupancy
Zn1    Zn    0.52628   0.68663   0.72504   0.00000  Uiso   1.00
O2     O     0.42147   0.83660   0.68110   0.00000  Uiso   1.00
O3     O     0.40135   0.92397   0.84150   0.00000  Uiso   1.00
O4     O     0.42828   1.10568   0.93029   0.00000  Uiso   1.00
H5     H     0.40740   1.05150   0.90750   0.00000  Uiso   1.00
O6     O     0.65280   1.03197   0.77548   0.00000  Uiso   1.00
O7     O     0.38388   0.64450   0.86327   0.00000  Uiso   1.00
O8     O     0.47460   0.45204   0.81860   0.00000  Uiso   1.00
N9     N     0.39810   0.42275   0.41837   0.00000  Uiso   1.00
N10    N     0.38550   0.53593   0.40821   0.00000  Uiso   1.00
H11    H     0.43120   0.56260   0.34300   0.00000  Uiso   1.00
N12    N     0.72390   0.68338   0.74482   0.00000  Uiso   1.00
N13    N     0.74730   0.77887   0.77763   0.00000  Uiso   1.00
H14    H     0.67460   0.84870   0.79830   0.00000  Uiso   1.00
C15    C     0.31310   0.41814   0.53093   0.00000  Uiso   1.00
C16    C     0.24570   0.52883   0.59190   0.00000  Uiso   1.00
C17    C     0.29460   0.60214   0.50985   0.00000  Uiso   1.00
C18    C     0.30450   0.30469   0.57460   0.00000  Uiso   1.00
H19    H     0.40540   0.24270   0.53240   0.00000  Uiso   1.00
H20    H     0.28350   0.30880   0.65770   0.00000  Uiso   1.00
H21    H     0.21910   0.28820   0.56240   0.00000  Uiso   1.00
C22    C     0.26040   0.73015   0.52110   0.00000  Uiso   1.00
H23    H     0.14780   0.77100   0.53860   0.00000  Uiso   1.00
H24    H     0.28680   0.75110   0.58400   0.00000  Uiso   1.00
H25    H     0.32420   0.75250   0.44810   0.00000  Uiso   1.00
C26    C     0.14090   0.56541   0.71824   0.00000  Uiso   1.00
H27    H     0.18430   0.61160   0.75180   0.00000  Uiso   1.00
H28    H     0.14180   0.49520   0.75980   0.00000  Uiso   1.00
C29    C     0.86250   0.59573   0.72045   0.00000  Uiso   1.00
C30    C     0.97250   0.63646   0.73740   0.00000  Uiso   1.00
C31    C     0.89470   0.75359   0.77457   0.00000  Uiso   1.00
C32    C     0.88290   0.47457   0.68520   0.00000  Uiso   1.00
H33    H     0.78110   0.46210   0.72070   0.00000  Uiso   1.00
H34    H     0.96010   0.41960   0.71120   0.00000  Uiso   1.00
H35    H     0.92080   0.46220   0.60040   0.00000  Uiso   1.00
C36    C     0.94660   0.84210   0.81230   0.00000  Uiso   1.00
H37    H     0.95490   0.89980   0.75620   0.00000  Uiso   1.00
H38    H     0.05000   0.80380   0.81650   0.00000  Uiso   1.00
H39    H     0.86900   0.88100   0.88900   0.00000  Uiso   1.00
C40    C     0.38440   0.92710   0.74780   0.00000  Uiso   1.00
C41    C     0.31490   1.04304   0.70680   0.00000  Uiso   1.00
H42    H     0.35000   1.10200   0.73080   0.00000  Uiso   1.00
H43    H     0.35520   1.03460   0.62090   0.00000  Uiso   1.00
C44    C     0.13480   1.08471   0.75660   0.00000  Uiso   1.00
C45    C     0.04870   1.09279   0.87520   0.00000  Uiso   1.00
H46    H     0.10300   1.07230   0.92600   0.00000  Uiso   1.00
C47    C     0.88410   1.13040   0.92080   0.00000  Uiso   1.00
H48    H     0.82760   1.13530   0.00230   0.00000  Uiso   1.00
C49    C     0.80160   1.16078   0.84870   0.00000  Uiso   1.00
C50    C     0.88840   1.15430   0.73000   0.00000  Uiso   1.00
H51    H     0.83440   1.17600   0.67910   0.00000  Uiso   1.00
C52    C     0.05180   1.11680   0.68500   0.00000  Uiso   1.00
H53    H     0.10830   1.11300   0.60370   0.00000  Uiso   1.00
C54    C     0.62330   1.19322   0.89780   0.00000  Uiso   1.00
H55    H     0.58250   1.20350   0.98360   0.00000  Uiso   1.00
H56    H     0.57640   1.26830   0.87150   0.00000  Uiso   1.00
C57    C     0.57260   1.10187   0.86050   0.00000  Uiso   1.00
C58    C     0.39030   0.54138   0.88710   0.00000  Uiso   1.00
C59    C     0.28240   0.52950   0.00879   0.00000  Uiso   1.00
H60    H     0.33960   0.46180   0.03940   0.00000  Uiso   1.00
H61    H     0.25160   0.60000   0.06100   0.00000  Uiso   1.00
C62    C     0.13500   0.51339   0.00633   0.00000  Uiso   1.00
C63    C     0.13540   0.40447   0.97850   0.00000  Uiso   1.00
H64    H     0.22800   0.33830   0.96350   0.00000  Uiso   1.00
C65    C     0.99790   0.60896   0.02769   0.00000  Uiso   1.00
H66    H     0.99560   0.68420   0.04670   0.00000  Uiso   1.00
Zn67   Zn    0.47372   0.31337   0.27496   0.00000  Uiso   1.00
O68    O     0.57853   0.16340   0.31890   0.00000  Uiso   1.00
O69    O     0.59865   0.07603   0.15850   0.00000  Uiso   1.00
O70    O     0.57172  -0.10568   0.06971   0.00000  Uiso   1.00
H71    H     0.59260  -0.05150   0.09250   0.00000  Uiso   1.00
O72    O     0.34720  -0.03197   0.22452   0.00000  Uiso   1.00
O73    O     0.61612   0.35550   0.13673   0.00000  Uiso   1.00
O74    O     0.52540   0.54796   0.18140   0.00000  Uiso   1.00
N75    N     0.60190   0.57725   0.58163   0.00000  Uiso   1.00
N76    N     0.61450   0.46407   0.59179   0.00000  Uiso   1.00
H77    H     0.56880   0.43740   0.65700   0.00000  Uiso   1.00
N78    N     0.27610   0.31662   0.25518   0.00000  Uiso   1.00
N79    N     0.25270   0.22113   0.22237   0.00000  Uiso   1.00
H80    H     0.32540   0.15130   0.20170   0.00000  Uiso   1.00
C81    C     0.68690   0.58186   0.46907   0.00000  Uiso   1.00
C82    C     0.75430   0.47117   0.40810   0.00000  Uiso   1.00
C83    C     0.70540   0.39786   0.49015   0.00000  Uiso   1.00
C84    C     0.69550   0.69531   0.42540   0.00000  Uiso   1.00
H85    H     0.59460   0.75730   0.46760   0.00000  Uiso   1.00
H86    H     0.71650   0.69120   0.34230   0.00000  Uiso   1.00
H87    H     0.78090   0.71180   0.43760   0.00000  Uiso   1.00
C88    C     0.73960   0.26985   0.47890   0.00000  Uiso   1.00
H89    H     0.85220   0.22900   0.46140   0.00000  Uiso   1.00
H90    H     0.71320   0.24890   0.41600   0.00000  Uiso   1.00
H91    H     0.67580   0.24750   0.55190   0.00000  Uiso   1.00
C92    C     0.85910   0.43459   0.28176   0.00000  Uiso   1.00
H93    H     0.81570   0.38840   0.24820   0.00000  Uiso   1.00
H94    H     0.85820   0.50480   0.24020   0.00000  Uiso   1.00
C95    C     0.13750   0.40427   0.27955   0.00000  Uiso   1.00
C96    C     0.02750   0.36354   0.26260   0.00000  Uiso   1.00
C97    C     0.10530   0.24641   0.22543   0.00000  Uiso   1.00
C98    C     0.11710   0.52543   0.31480   0.00000  Uiso   1.00
H99    H     0.21890   0.53790   0.27930   0.00000  Uiso   1.00
H100   H     0.03990   0.58040   0.28880   0.00000  Uiso   1.00
H101   H     0.07920   0.53780   0.39960   0.00000  Uiso   1.00
C102   C     0.05340   0.15790   0.18770   0.00000  Uiso   1.00
H103   H     0.04510   0.10020   0.24380   0.00000  Uiso   1.00
H104   H     0.95000   0.19620   0.18350   0.00000  Uiso   1.00
H105   H     0.13100   0.11900   0.11100   0.00000  Uiso   1.00
C106   C     0.61560   0.07290   0.25220   0.00000  Uiso   1.00
C107   C     0.68510  -0.04304   0.29320   0.00000  Uiso   1.00
H108   H     0.65000  -0.10200   0.26920   0.00000  Uiso   1.00
H109   H     0.64480  -0.03460   0.37910   0.00000  Uiso   1.00
C110   C     0.86520  -0.08471   0.24340   0.00000  Uiso   1.00
C111   C     0.95130  -0.09279   0.12480   0.00000  Uiso   1.00
H112   H     0.89700  -0.07230   0.07400   0.00000  Uiso   1.00
C113   C     0.11590  -0.13040   0.07920   0.00000  Uiso   1.00
H114   H     0.17240  -0.13530   0.99770   0.00000  Uiso   1.00
C115   C     0.19840  -0.16078   0.15130   0.00000  Uiso   1.00
C116   C     0.11160  -0.15430   0.27000   0.00000  Uiso   1.00
H117   H     0.16560  -0.17600   0.32090   0.00000  Uiso   1.00
C118   C     0.94820  -0.11680   0.31500   0.00000  Uiso   1.00
H119   H     0.89170  -0.11300   0.39630   0.00000  Uiso   1.00
C120   C     0.37670  -0.19322   0.10220   0.00000  Uiso   1.00
H121   H     0.41750  -0.20350   0.01640   0.00000  Uiso   1.00
H122   H     0.42360  -0.26830   0.12850   0.00000  Uiso   1.00
C123   C     0.42740  -0.10187   0.13950   0.00000  Uiso   1.00
C124   C     0.60970   0.45862   0.11290   0.00000  Uiso   1.00
C125   C     0.71760   0.47050   0.99121   0.00000  Uiso   1.00
H126   H     0.66040   0.53820   0.96060   0.00000  Uiso   1.00
H127   H     0.74840   0.40000   0.93900   0.00000  Uiso   1.00
C128   C     0.86500   0.48661   0.99367   0.00000  Uiso   1.00
C129   C     0.86460   0.59553   0.02150   0.00000  Uiso   1.00
H130   H     0.77200   0.66170   0.03650   0.00000  Uiso   1.00
C131   C     0.00210   0.39104   0.97231   0.00000  Uiso   1.00
H132   H     0.00440   0.31580   0.95330   0.00000  Uiso   1.00
loop_
_geom_bond_atom_site_label_1
_geom_bond_atom_site_label_2
_geom_bond_distance
_geom_bond_site_symmetry_2
_ccdc_geom_bond_type
Zn1    O2      1.960   .     S
Zn1    O7      1.942   .     S
Zn1    N12     2.014   .     S
Zn1    N75     2.015   .     S
O2     C40     1.274   .     S
O3     C40     1.242   .     S
O4     H5      0.841   .     S
O4     C57     1.328   .     S
O6     C57     1.210   .     S
O7     C58     1.275   .     S
O8     C58     1.242   .     S
N9     N10     1.357   .     S
N9     C15     1.347   .     S
N9     Zn67    2.015   .     S
N10    H11     0.880   .     S
N10    C17     1.341   .     S
N12    N13     1.365   .     S
N12    C29     1.348   .     S
N13    H14     0.881   .     S
N13    C31     1.347   .     S
C15    C16     1.397   .     S
C15    C18     1.493   .     S
C16    C26     1.504   .     S
C16    C17     1.392   .     S
C17    C22     1.491   .     S
C18    H19     0.980   .     S
C18    H20     0.980   .     S
C18    H21     0.980   .     S
C22    H23     0.980   .     S
C22    H24     0.980   .     S
C22    H25     0.980   .     S
C26    H27     0.990   .     S
C26    H28     0.990   .     S
C26    C30     1.507   1_455 S
C29    C32     1.489   .     S
C29    C30     1.401   .     S
C30    C26     1.507   1_655 S
C30    C31     1.381   .     S
C31    C36     1.491   .     S
C32    H33     0.980   .     S
C32    H34     0.980   .     S
C32    H35     0.981   .     S
C36    H37     0.981   .     S
C36    H38     0.980   1_655 S
C36    H39     0.981   .     S
H38    C36     0.980   1_455 S
C40    C41     1.523   .     S
C41    H42     0.990   .     S
C41    H43     0.991   .     S
C41    C44     1.522   .     S
C44    C45     1.388   .     S
C44    C52     1.387   .     S
C45    H46     0.950   .     S
C45    C47     1.392   1_455 S
C47    C45     1.392   1_655 S
C47    H48     0.950   1_556 S
C47    C49     1.387   .     S
H48    C47     0.950   1_554 S
C49    C50     1.392   .     S
C49    C54     1.514   .     S
C50    H51     0.950   .     S
C50    C52     1.381   1_655 S
C52    H53     0.950   .     S
C52    C50     1.381   1_455 S
C54    H55     0.990   .     S
C54    H56     0.990   .     S
C54    C57     1.510   .     S
C58    C59     1.522   1_556 S
C59    C58     1.522   1_554 S
C59    H60     0.990   .     S
C59    H61     0.990   .     S
C59    C62     1.520   .     S
C62    C63     1.388   1_554 S
C62    C65     1.393   1_455 S
C63    C62     1.388   1_556 S
C63    H64     0.951   .     S
C63    C131    1.388   .     S
C65    C62     1.393   1_655 S
C65    H66     0.950   .     S
C65    C129    1.388   .     S
Zn67   O68     1.960   .     S
Zn67   O73     1.942   .     S
Zn67   N78     2.014   .     S
O68    C106    1.274   .     S
O69    C106    1.242   .     S
O70    H71     0.841   .     S
O70    C123    1.328   .     S
O72    C123    1.210   .     S
O73    C124    1.275   .     S
O74    C124    1.242   .     S
N75    N76     1.357   .     S
N75    C81     1.347   .     S
N76    H77     0.880   .     S
N76    C83     1.341   .     S
N78    N79     1.365   .     S
N78    C95     1.348   .     S
N79    H80     0.881   .     S
N79    C97     1.347   .     S
C81    C82     1.397   .     S
C81    C84     1.493   .     S
C82    C92     1.504   .     S
C82    C83     1.392   .     S
C83    C88     1.491   .     S
C84    H85     0.980   .     S
C84    H86     0.980   .     S
C84    H87     0.980   .     S
C88    H89     0.980   .     S
C88    H90     0.980   .     S
C88    H91     0.980   .     S
C92    H93     0.990   .     S
C92    H94     0.990   .     S
C92    C96     1.507   1_655 S
C95    C98     1.489   .     S
C95    C96     1.401   .     S
C96    C92     1.507   1_455 S
C96    C97     1.381   .     S
C97    C102    1.491   .     S
C98    H99     0.980   .     S
C98    H100    0.980   .     S
C98    H101    0.981   .     S
C102   H103    0.981   .     S
C102   H104    0.980   1_455 S
C102   H105    0.981   .     S
H104   C102    0.980   1_655 S
C106   C107    1.523   .     S
C107   H108    0.990   .     S
C107   H109    0.991   .     S
C107   C110    1.522   .     S
C110   C111    1.388   .     S
C110   C118    1.387   .     S
C111   H112    0.950   .     S
C111   C113    1.392   1_655 S
C113   C111    1.392   1_455 S
C113   H114    0.950   1_554 S
C113   C115    1.387   .     S
H114   C113    0.950   1_556 S
C115   C116    1.392   .     S
C115   C120    1.514   .     S
C116   H117    0.950   .     S
C116   C118    1.381   1_455 S
C118   H119    0.950   .     S
C118   C116    1.381   1_655 S
C120   H121    0.990   .     S
C120   H122    0.990   .     S
C120   C123    1.510   .     S
C124   C125    1.522   1_554 S
C125   C124    1.522   1_556 S
C125   H126    0.990   .     S
C125   H127    0.990   .     S
C125   C128    1.520   .     S
C128   C129    1.388   1_556 S
C128   C131    1.393   1_655 S
C129   C128    1.388   1_554 S
C129   H130    0.951   .     S
C131   C128    1.393   1_455 S
C131   H132    0.950   .     S
