data_OXALFE09_FSR
_audit_creation_date              2024-06-11
_audit_creation_method            'Materials Studio'
_symmetry_space_group_name_H-M    'P1'
_symmetry_Int_Tables_number       1
_symmetry_cell_setting            triclinic
loop_
_symmetry_equiv_pos_as_xyz
  x,y,z
_cell_length_a                    12.0650
_cell_length_b                    5.5590
_cell_length_c                    9.8170
_cell_angle_alpha                 90.0000
_cell_angle_beta                  128.0300
_cell_angle_gamma                 90.0000
loop_
_atom_site_label
_atom_site_type_symbol
_atom_site_fract_x
_atom_site_fract_y
_atom_site_fract_z
_atom_site_U_iso_or_equiv
_atom_site_adp_type
_atom_site_occupancy
C1     C     0.04990   0.66690   0.85100   0.00000  Uiso   1.00
O2     O     0.08630   0.87120   0.92380   0.00000  Uiso   1.00
O3     O     0.08570   0.46730   0.92370   0.00000  Uiso   1.00
O4     O     0.17910   0.17210   0.75660   0.00000  Uiso   1.00
H5     H     0.25420   0.22580   0.85630   0.00000  Uiso   1.00
H6     H     0.16550   0.26590   0.67510   0.00000  Uiso   1.00
C7     C     0.54990   0.16690   0.85100   0.00000  Uiso   1.00
O8     O     0.58630   0.37120   0.92380   0.00000  Uiso   1.00
O9     O     0.58570   0.96730   0.92370   0.00000  Uiso   1.00
O10    O     0.67910   0.67210   0.75660   0.00000  Uiso   1.00
H11    H     0.75420   0.72580   0.85630   0.00000  Uiso   1.00
H12    H     0.66550   0.76590   0.67510   0.00000  Uiso   1.00
C13    C    -0.04990   0.66690   0.64900   0.00000  Uiso   1.00
O14    O    -0.08630   0.87120   0.57620   0.00000  Uiso   1.00
O15    O    -0.08570   0.46730   0.57630   0.00000  Uiso   1.00
O16    O    -0.17910   0.17210   0.74340   0.00000  Uiso   1.00
H17    H    -0.25420   0.22580   0.64370   0.00000  Uiso   1.00
H18    H    -0.16550   0.26590   0.82490   0.00000  Uiso   1.00
C19    C     0.45010   0.16690   0.64900   0.00000  Uiso   1.00
O20    O     0.41370   0.37120   0.57620   0.00000  Uiso   1.00
O21    O     0.41430   0.96730   0.57630   0.00000  Uiso   1.00
O22    O     0.32090   0.67210   0.74340   0.00000  Uiso   1.00
H23    H     0.24580   0.72580   0.64370   0.00000  Uiso   1.00
H24    H     0.33450   0.76590   0.82490   0.00000  Uiso   1.00
C25    C    -0.04990   0.33310   0.14900   0.00000  Uiso   1.00
O26    O    -0.08630   0.12880   0.07620   0.00000  Uiso   1.00
O27    O    -0.08570   0.53270   0.07630   0.00000  Uiso   1.00
O28    O    -0.17910   0.82790   0.24340   0.00000  Uiso   1.00
H29    H    -0.25420   0.77420   0.14370   0.00000  Uiso   1.00
H30    H    -0.16550   0.73410   0.32490   0.00000  Uiso   1.00
C31    C     0.45010   0.83310   0.14900   0.00000  Uiso   1.00
O32    O     0.41370   0.62880   0.07620   0.00000  Uiso   1.00
O33    O     0.41430   0.03270   0.07630   0.00000  Uiso   1.00
O34    O     0.32090   0.32790   0.24340   0.00000  Uiso   1.00
H35    H     0.24580   0.27420   0.14370   0.00000  Uiso   1.00
H36    H     0.33450   0.23410   0.32490   0.00000  Uiso   1.00
C37    C     0.04990   0.33310   0.35100   0.00000  Uiso   1.00
O38    O     0.08630   0.12880   0.42380   0.00000  Uiso   1.00
O39    O     0.08570   0.53270   0.42370   0.00000  Uiso   1.00
O40    O     0.17910   0.82790   0.25660   0.00000  Uiso   1.00
H41    H     0.25420   0.77420   0.35630   0.00000  Uiso   1.00
H42    H     0.16550   0.73410   0.17510   0.00000  Uiso   1.00
C43    C     0.54990   0.83310   0.35100   0.00000  Uiso   1.00
O44    O     0.58630   0.62880   0.42380   0.00000  Uiso   1.00
O45    O     0.58570   0.03270   0.42370   0.00000  Uiso   1.00
O46    O     0.67910   0.32790   0.25660   0.00000  Uiso   1.00
H47    H     0.75420   0.27420   0.35630   0.00000  Uiso   1.00
H48    H     0.66550   0.23410   0.17510   0.00000  Uiso   1.00
Fe49   Fe    0.00000   0.17070   0.75000   0.00000  Uiso   1.00
Fe50   Fe    0.50000   0.67070   0.75000   0.00000  Uiso   1.00
Fe51   Fe    0.00000   0.82930   0.25000   0.00000  Uiso   1.00
Fe52   Fe    0.50000   0.32930   0.25000   0.00000  Uiso   1.00
loop_
_geom_bond_atom_site_label_1
_geom_bond_atom_site_label_2
_geom_bond_distance
_geom_bond_site_symmetry_2
_ccdc_geom_bond_type
C1     O2      1.268   .     S
C1     O3      1.244   .     S
C1     C13     1.562   .     S
O2     Fe49    2.140   1_565 S
O3     Fe49    2.127   .     S
O4     H5      0.881   .     S
O4     H6      0.882   .     S
O4     Fe49    2.122   .     S
C7     O8      1.268   .     S
C7     O9      1.244   1_545 S
C7     C19     1.562   .     S
O8     Fe50    2.140   .     S
O9     C7      1.244   1_565 S
O9     Fe50    2.127   .     S
O10    H11     0.881   .     S
O10    H12     0.882   .     S
O10    Fe50    2.122   .     S
C13    O14     1.268   .     S
C13    O15     1.244   .     S
O14    Fe49    2.140   1_565 S
O15    Fe49    2.127   .     S
O16    H17     0.881   .     S
O16    H18     0.882   .     S
O16    Fe49    2.122   .     S
C19    O20     1.268   .     S
C19    O21     1.244   1_545 S
O20    Fe50    2.140   .     S
O21    C19     1.244   1_565 S
O21    Fe50    2.127   .     S
O22    H23     0.881   .     S
O22    H24     0.882   .     S
O22    Fe50    2.122   .     S
C25    O26     1.268   .     S
C25    O27     1.244   .     S
C25    C37     1.562   .     S
O26    Fe51    2.140   1_545 S
O27    Fe51    2.127   .     S
O28    H29     0.881   .     S
O28    H30     0.882   .     S
O28    Fe51    2.122   .     S
C31    O32     1.268   .     S
C31    O33     1.244   1_565 S
C31    C43     1.562   .     S
O32    Fe52    2.140   .     S
O33    C31     1.244   1_545 S
O33    Fe52    2.127   .     S
O34    H35     0.881   .     S
O34    H36     0.882   .     S
O34    Fe52    2.122   .     S
C37    O38     1.268   .     S
C37    O39     1.244   .     S
O38    Fe51    2.140   1_545 S
O39    Fe51    2.127   .     S
O40    H41     0.881   .     S
O40    H42     0.882   .     S
O40    Fe51    2.122   .     S
C43    O44     1.268   .     S
C43    O45     1.244   1_565 S
O44    Fe52    2.140   .     S
O45    C43     1.244   1_545 S
O45    Fe52    2.127   .     S
O46    H47     0.881   .     S
O46    H48     0.882   .     S
O46    Fe52    2.122   .     S
Fe49   O2      2.140   1_545 S
Fe49   O14     2.140   1_545 S
Fe51   O26     2.140   1_565 S
Fe51   O38     2.140   1_565 S
