data_PABKAI_FSR
_audit_creation_date              2024-06-11
_audit_creation_method            'Materials Studio'
_symmetry_space_group_name_H-M    'P1'
_symmetry_Int_Tables_number       1
_symmetry_cell_setting            triclinic
loop_
_symmetry_equiv_pos_as_xyz
  x,y,z
_cell_length_a                    15.1205
_cell_length_b                    10.7089
_cell_length_c                    15.3715
_cell_angle_alpha                 90.0000
_cell_angle_beta                  95.0570
_cell_angle_gamma                 90.0000
loop_
_atom_site_label
_atom_site_type_symbol
_atom_site_fract_x
_atom_site_fract_y
_atom_site_fract_z
_atom_site_U_iso_or_equiv
_atom_site_adp_type
_atom_site_occupancy
Eu1    Eu    0.12191   0.06577   0.54111   0.00000  Uiso   1.00
O2     O     0.10120   0.02550   0.38320   0.00000  Uiso   1.00
O3     O     0.97790   0.91520   0.34920   0.00000  Uiso   1.00
O4     O     0.74580   0.44500   0.00160   0.00000  Uiso   1.00
O5     O     0.51810   0.19960   0.13520   0.00000  Uiso   1.00
H6     H     0.50350   0.13140   0.15790   0.00000  Uiso   1.00
O7     O     0.74520   0.64960   0.01850   0.00000  Uiso   1.00
O8     O     0.19550   0.22710   0.63460   0.00000  Uiso   1.00
H9     H     0.24520   0.18370   0.64600   0.00000  Uiso   1.00
H10    H     0.17780   0.19640   0.68360   0.00000  Uiso   1.00
C11    C     0.31220   0.86920   0.16130   0.00000  Uiso   1.00
O12    O     0.19070   0.96490   0.67380   0.00000  Uiso   1.00
C13    C     0.71100   0.54410   0.02750   0.00000  Uiso   1.00
N14    N     0.44760   0.98280   0.15700   0.00000  Uiso   1.00
C15    C     0.08930   0.91140   0.25020   0.00000  Uiso   1.00
C16    C     0.21480   0.86620   0.17000   0.00000  Uiso   1.00
C17    C     0.59020   0.42190   0.09000   0.00000  Uiso   1.00
H18    H     0.62100   0.34880   0.08030   0.00000  Uiso   1.00
C19    C     0.05360   0.95520   0.33500   0.00000  Uiso   1.00
C20    C     0.62470   0.53730   0.07020   0.00000  Uiso   1.00
C21    C     0.03300   0.85360   0.18710   0.00000  Uiso   1.00
H22    H     0.97230   0.85060   0.19270   0.00000  Uiso   1.00
C23    C     0.58060   0.64630   0.08740   0.00000  Uiso   1.00
H24    H     0.60630   0.72300   0.07630   0.00000  Uiso   1.00
C25    C     0.16050   0.80310   0.10810   0.00000  Uiso   1.00
H26    H     0.18490   0.76320   0.06210   0.00000  Uiso   1.00
C27    C     0.00950   0.72490   0.05140   0.00000  Uiso   1.00
C28    C     0.44870   0.75880   0.13730   0.00000  Uiso   1.00
C29    C     0.49760   0.64280   0.12140   0.00000  Uiso   1.00
C30    C     0.17990   0.92050   0.24120   0.00000  Uiso   1.00
H31    H     0.21680   0.96290   0.28280   0.00000  Uiso   1.00
C32    C     0.48950   0.87560   0.14430   0.00000  Uiso   1.00
H33    H     0.55030   0.87900   0.13970   0.00000  Uiso   1.00
C34    C     0.50860   0.41800   0.12470   0.00000  Uiso   1.00
C35    C     0.46690   0.29500   0.14570   0.00000  Uiso   1.00
C36    C     0.15530   0.92680   0.73780   0.00000  Uiso   1.00
H37    H     0.09540   0.90640   0.72990   0.00000  Uiso   1.00
C38    C     0.06820   0.79900   0.11430   0.00000  Uiso   1.00
C39    C     0.36070   0.97770   0.16590   0.00000  Uiso   1.00
H40    H     0.33140   0.05200   0.17580   0.00000  Uiso   1.00
C41    C     0.35680   0.75780   0.14260   0.00000  Uiso   1.00
H42    H     0.32510   0.68380   0.13390   0.00000  Uiso   1.00
C43    C     0.46300   0.52760   0.14150   0.00000  Uiso   1.00
H44    H     0.40920   0.52320   0.16630   0.00000  Uiso   1.00
O45    O     0.39170   0.28640   0.16640   0.00000  Uiso   1.00
N46    N     0.19520   0.91290   0.81550   0.00000  Uiso   1.00
C47    C     0.14650   0.85790   0.88610   0.00000  Uiso   1.00
H48    H     0.08670   0.83890   0.86370   0.00000  Uiso   1.00
H49    H     0.14560   0.91650   0.93330   0.00000  Uiso   1.00
H50    H     0.17570   0.78270   0.90700   0.00000  Uiso   1.00
C51    C     0.28850   0.93500   0.83260   0.00000  Uiso   1.00
H52    H     0.32090   0.86760   0.80930   0.00000  Uiso   1.00
H53    H     0.30340   0.94040   0.89450   0.00000  Uiso   1.00
H54    H     0.30380   0.01190   0.80560   0.00000  Uiso   1.00
O55    O     0.04090   0.62290   0.02280   0.00000  Uiso   1.00
O56    O     0.93310   0.76070   0.02790   0.00000  Uiso   1.00
Eu57   Eu    0.87809   0.56577   0.95889   0.00000  Uiso   1.00
O58    O     0.89880   0.52550   0.11680   0.00000  Uiso   1.00
O59    O     0.02210   0.41520   0.15080   0.00000  Uiso   1.00
O60    O     0.25420   0.94500   0.49840   0.00000  Uiso   1.00
O61    O     0.48190   0.69960   0.36480   0.00000  Uiso   1.00
H62    H     0.49650   0.63140   0.34210   0.00000  Uiso   1.00
O63    O     0.25480   0.14960   0.48150   0.00000  Uiso   1.00
O64    O     0.80450   0.72710   0.86540   0.00000  Uiso   1.00
H65    H     0.75480   0.68370   0.85400   0.00000  Uiso   1.00
H66    H     0.82220   0.69640   0.81640   0.00000  Uiso   1.00
C67    C     0.68780   0.36920   0.33870   0.00000  Uiso   1.00
O68    O     0.80930   0.46490   0.82620   0.00000  Uiso   1.00
C69    C     0.28900   0.04410   0.47250   0.00000  Uiso   1.00
N70    N     0.55240   0.48280   0.34300   0.00000  Uiso   1.00
C71    C     0.91070   0.41140   0.24980   0.00000  Uiso   1.00
C72    C     0.78520   0.36620   0.33000   0.00000  Uiso   1.00
C73    C     0.40980   0.92190   0.41000   0.00000  Uiso   1.00
H74    H     0.37900   0.84880   0.41970   0.00000  Uiso   1.00
C75    C     0.94640   0.45520   0.16500   0.00000  Uiso   1.00
C76    C     0.37530   0.03730   0.42980   0.00000  Uiso   1.00
C77    C     0.96700   0.35360   0.31290   0.00000  Uiso   1.00
H78    H     0.02770   0.35060   0.30730   0.00000  Uiso   1.00
C79    C     0.41940   0.14630   0.41260   0.00000  Uiso   1.00
H80    H     0.39370   0.22300   0.42370   0.00000  Uiso   1.00
C81    C     0.83950   0.30310   0.39190   0.00000  Uiso   1.00
H82    H     0.81510   0.26320   0.43790   0.00000  Uiso   1.00
C83    C     0.99050   0.22490   0.44860   0.00000  Uiso   1.00
C84    C     0.55130   0.25880   0.36270   0.00000  Uiso   1.00
C85    C     0.50240   0.14280   0.37860   0.00000  Uiso   1.00
C86    C     0.82010   0.42050   0.25880   0.00000  Uiso   1.00
H87    H     0.78320   0.46290   0.21720   0.00000  Uiso   1.00
C88    C     0.51050   0.37560   0.35570   0.00000  Uiso   1.00
H89    H     0.44970   0.37900   0.36030   0.00000  Uiso   1.00
C90    C     0.49140   0.91800   0.37530   0.00000  Uiso   1.00
C91    C     0.53310   0.79500   0.35430   0.00000  Uiso   1.00
C92    C     0.84470   0.42680   0.76220   0.00000  Uiso   1.00
H93    H     0.90460   0.40640   0.77010   0.00000  Uiso   1.00
C94    C     0.93180   0.29900   0.38570   0.00000  Uiso   1.00
C95    C     0.63930   0.47770   0.33410   0.00000  Uiso   1.00
H96    H     0.66860   0.55200   0.32420   0.00000  Uiso   1.00
C97    C     0.64320   0.25780   0.35740   0.00000  Uiso   1.00
H98    H     0.67490   0.18380   0.36610   0.00000  Uiso   1.00
C99    C     0.53700   0.02760   0.35850   0.00000  Uiso   1.00
H100   H     0.59080   0.02320   0.33370   0.00000  Uiso   1.00
O101   O     0.60830   0.78640   0.33360   0.00000  Uiso   1.00
N102   N     0.80480   0.41290   0.68450   0.00000  Uiso   1.00
C103   C     0.85350   0.35790   0.61390   0.00000  Uiso   1.00
H104   H     0.91330   0.33890   0.63630   0.00000  Uiso   1.00
H105   H     0.85440   0.41650   0.56670   0.00000  Uiso   1.00
H106   H     0.82430   0.28270   0.59300   0.00000  Uiso   1.00
C107   C     0.71150   0.43500   0.66740   0.00000  Uiso   1.00
H108   H     0.67910   0.36760   0.69070   0.00000  Uiso   1.00
H109   H     0.69660   0.44040   0.60550   0.00000  Uiso   1.00
H110   H     0.69620   0.51190   0.69440   0.00000  Uiso   1.00
O111   O     0.95910   0.12290   0.47720   0.00000  Uiso   1.00
O112   O     0.06690   0.26070   0.47210   0.00000  Uiso   1.00
Eu113  Eu    0.87809   0.93423   0.45889   0.00000  Uiso   1.00
O114   O     0.89880   0.97450   0.61680   0.00000  Uiso   1.00
O115   O     0.02210   0.08480   0.65080   0.00000  Uiso   1.00
O116   O     0.25420   0.55500   0.99840   0.00000  Uiso   1.00
O117   O     0.48190   0.80040   0.86480   0.00000  Uiso   1.00
H118   H     0.49650   0.86860   0.84210   0.00000  Uiso   1.00
O119   O     0.25480   0.35040   0.98150   0.00000  Uiso   1.00
O120   O     0.80450   0.77290   0.36540   0.00000  Uiso   1.00
H121   H     0.75480   0.81630   0.35400   0.00000  Uiso   1.00
H122   H     0.82220   0.80360   0.31640   0.00000  Uiso   1.00
C123   C     0.68780   0.13080   0.83870   0.00000  Uiso   1.00
O124   O     0.80930   0.03510   0.32620   0.00000  Uiso   1.00
C125   C     0.28900   0.45590   0.97250   0.00000  Uiso   1.00
N126   N     0.55240   0.01720   0.84300   0.00000  Uiso   1.00
C127   C     0.91070   0.08860   0.74980   0.00000  Uiso   1.00
C128   C     0.78520   0.13380   0.83000   0.00000  Uiso   1.00
C129   C     0.40980   0.57810   0.91000   0.00000  Uiso   1.00
H130   H     0.37900   0.65120   0.91970   0.00000  Uiso   1.00
C131   C     0.94640   0.04480   0.66500   0.00000  Uiso   1.00
C132   C     0.37530   0.46270   0.92980   0.00000  Uiso   1.00
C133   C     0.96700   0.14640   0.81290   0.00000  Uiso   1.00
H134   H     0.02770   0.14940   0.80730   0.00000  Uiso   1.00
C135   C     0.41940   0.35370   0.91260   0.00000  Uiso   1.00
H136   H     0.39370   0.27700   0.92370   0.00000  Uiso   1.00
C137   C     0.83950   0.19690   0.89190   0.00000  Uiso   1.00
H138   H     0.81510   0.23680   0.93790   0.00000  Uiso   1.00
C139   C     0.99050   0.27510   0.94860   0.00000  Uiso   1.00
C140   C     0.55130   0.24120   0.86270   0.00000  Uiso   1.00
C141   C     0.50240   0.35720   0.87860   0.00000  Uiso   1.00
C142   C     0.82010   0.07950   0.75880   0.00000  Uiso   1.00
H143   H     0.78320   0.03710   0.71720   0.00000  Uiso   1.00
C144   C     0.51050   0.12440   0.85570   0.00000  Uiso   1.00
H145   H     0.44970   0.12100   0.86030   0.00000  Uiso   1.00
C146   C     0.49140   0.58200   0.87530   0.00000  Uiso   1.00
C147   C     0.53310   0.70500   0.85430   0.00000  Uiso   1.00
C148   C     0.84470   0.07320   0.26220   0.00000  Uiso   1.00
H149   H     0.90460   0.09360   0.27010   0.00000  Uiso   1.00
C150   C     0.93180   0.20100   0.88570   0.00000  Uiso   1.00
C151   C     0.63930   0.02230   0.83410   0.00000  Uiso   1.00
H152   H     0.66860   0.94800   0.82420   0.00000  Uiso   1.00
C153   C     0.64320   0.24220   0.85740   0.00000  Uiso   1.00
H154   H     0.67490   0.31620   0.86610   0.00000  Uiso   1.00
C155   C     0.53700   0.47240   0.85850   0.00000  Uiso   1.00
H156   H     0.59080   0.47680   0.83370   0.00000  Uiso   1.00
O157   O     0.60830   0.71360   0.83360   0.00000  Uiso   1.00
N158   N     0.80480   0.08710   0.18450   0.00000  Uiso   1.00
C159   C     0.85350   0.14210   0.11390   0.00000  Uiso   1.00
H160   H     0.91330   0.16110   0.13630   0.00000  Uiso   1.00
H161   H     0.85440   0.08350   0.06670   0.00000  Uiso   1.00
H162   H     0.82430   0.21730   0.09300   0.00000  Uiso   1.00
C163   C     0.71150   0.06500   0.16740   0.00000  Uiso   1.00
H164   H     0.67910   0.13240   0.19070   0.00000  Uiso   1.00
H165   H     0.69660   0.05960   0.10550   0.00000  Uiso   1.00
H166   H     0.69620   0.98810   0.19440   0.00000  Uiso   1.00
O167   O     0.95910   0.37710   0.97720   0.00000  Uiso   1.00
O168   O     0.06690   0.23930   0.97210   0.00000  Uiso   1.00
Eu169  Eu    0.12191   0.43423   0.04111   0.00000  Uiso   1.00
O170   O     0.10120   0.47450   0.88320   0.00000  Uiso   1.00
O171   O     0.97790   0.58480   0.84920   0.00000  Uiso   1.00
O172   O     0.74580   0.05500   0.50160   0.00000  Uiso   1.00
O173   O     0.51810   0.30040   0.63520   0.00000  Uiso   1.00
H174   H     0.50350   0.36860   0.65790   0.00000  Uiso   1.00
O175   O     0.74520   0.85040   0.51850   0.00000  Uiso   1.00
O176   O     0.19550   0.27290   0.13460   0.00000  Uiso   1.00
H177   H     0.24520   0.31630   0.14600   0.00000  Uiso   1.00
H178   H     0.17780   0.30360   0.18360   0.00000  Uiso   1.00
C179   C     0.31220   0.63080   0.66130   0.00000  Uiso   1.00
O180   O     0.19070   0.53510   0.17380   0.00000  Uiso   1.00
C181   C     0.71100   0.95590   0.52750   0.00000  Uiso   1.00
N182   N     0.44760   0.51720   0.65700   0.00000  Uiso   1.00
C183   C     0.08930   0.58860   0.75020   0.00000  Uiso   1.00
C184   C     0.21480   0.63380   0.67000   0.00000  Uiso   1.00
C185   C     0.59020   0.07810   0.59000   0.00000  Uiso   1.00
H186   H     0.62100   0.15120   0.58030   0.00000  Uiso   1.00
C187   C     0.05360   0.54480   0.83500   0.00000  Uiso   1.00
C188   C     0.62470   0.96270   0.57020   0.00000  Uiso   1.00
C189   C     0.03300   0.64640   0.68710   0.00000  Uiso   1.00
H190   H     0.97230   0.64940   0.69270   0.00000  Uiso   1.00
C191   C     0.58060   0.85370   0.58740   0.00000  Uiso   1.00
H192   H     0.60630   0.77700   0.57630   0.00000  Uiso   1.00
C193   C     0.16050   0.69690   0.60810   0.00000  Uiso   1.00
H194   H     0.18490   0.73680   0.56210   0.00000  Uiso   1.00
C195   C     0.00950   0.77510   0.55140   0.00000  Uiso   1.00
C196   C     0.44870   0.74120   0.63730   0.00000  Uiso   1.00
C197   C     0.49760   0.85720   0.62140   0.00000  Uiso   1.00
C198   C     0.17990   0.57950   0.74120   0.00000  Uiso   1.00
H199   H     0.21680   0.53710   0.78280   0.00000  Uiso   1.00
C200   C     0.48950   0.62440   0.64430   0.00000  Uiso   1.00
H201   H     0.55030   0.62100   0.63970   0.00000  Uiso   1.00
C202   C     0.50860   0.08200   0.62470   0.00000  Uiso   1.00
C203   C     0.46690   0.20500   0.64570   0.00000  Uiso   1.00
C204   C     0.15530   0.57320   0.23780   0.00000  Uiso   1.00
H205   H     0.09540   0.59360   0.22990   0.00000  Uiso   1.00
C206   C     0.06820   0.70100   0.61430   0.00000  Uiso   1.00
C207   C     0.36070   0.52230   0.66590   0.00000  Uiso   1.00
H208   H     0.33140   0.44800   0.67580   0.00000  Uiso   1.00
C209   C     0.35680   0.74220   0.64260   0.00000  Uiso   1.00
H210   H     0.32510   0.81620   0.63390   0.00000  Uiso   1.00
C211   C     0.46300   0.97240   0.64150   0.00000  Uiso   1.00
H212   H     0.40920   0.97680   0.66630   0.00000  Uiso   1.00
O213   O     0.39170   0.21360   0.66640   0.00000  Uiso   1.00
N214   N     0.19520   0.58710   0.31550   0.00000  Uiso   1.00
C215   C     0.14650   0.64210   0.38610   0.00000  Uiso   1.00
H216   H     0.08670   0.66110   0.36370   0.00000  Uiso   1.00
H217   H     0.14560   0.58350   0.43330   0.00000  Uiso   1.00
H218   H     0.17570   0.71730   0.40700   0.00000  Uiso   1.00
C219   C     0.28850   0.56500   0.33260   0.00000  Uiso   1.00
H220   H     0.32090   0.63240   0.30930   0.00000  Uiso   1.00
H221   H     0.30340   0.55960   0.39450   0.00000  Uiso   1.00
H222   H     0.30380   0.48810   0.30560   0.00000  Uiso   1.00
O223   O     0.04090   0.87710   0.52280   0.00000  Uiso   1.00
O224   O     0.93310   0.73930   0.52790   0.00000  Uiso   1.00
loop_
_geom_bond_atom_site_label_1
_geom_bond_atom_site_label_2
_geom_bond_distance
_geom_bond_site_symmetry_2
_ccdc_geom_bond_type
Eu1    O2      2.458   .     S
Eu1    O8      2.451   .     S
Eu1    O12     2.457   1_545 S
Eu1    O115    2.369   .     S
Eu1    O60     2.517   1_545 S
Eu1    O63     2.451   .     S
Eu1    O111    2.641   1_455 S
Eu1    O223    2.367   1_545 S
Eu1    O112    2.453   .     S
O2     C19     1.241   1_545 S
O3     C19     1.259   1_655 S
O3     Eu113   2.369   .     S
O4     C13     1.264   .     S
O4     Eu57    2.517   1_554 S
O5     H6      0.847   .     S
O5     C35     1.300   .     S
O7     C13     1.255   .     S
O7     Eu57    2.451   1_554 S
O8     H9      0.888   .     S
O8     H10     0.885   .     S
C11    C16     1.491   .     S
C11    C39     1.372   .     S
C11    C41     1.412   .     S
O12    Eu1     2.457   1_565 S
O12    C36     1.230   .     S
C13    C20     1.513   .     S
N14    C32     1.334   .     S
N14    C39     1.334   .     S
C15    C19     1.528   .     S
C15    C21     1.380   .     S
C15    C30     1.392   .     S
C16    C25     1.378   .     S
C16    C30     1.384   .     S
C17    H18     0.930   .     S
C17    C20     1.386   .     S
C17    C34     1.387   .     S
C19    O2      1.241   1_565 S
C19    O3      1.259   1_455 S
C20    C23     1.381   .     S
C21    H22     0.930   1_455 S
C21    C38     1.408   .     S
H22    C21     0.930   1_655 S
C23    H24     0.931   .     S
C23    C29     1.402   .     S
C25    H26     0.930   .     S
C25    C38     1.408   .     S
C27    C38     1.484   .     S
C27    O55     1.284   .     S
C27    O56     1.240   1_455 S
C28    C29     1.477   .     S
C28    C32     1.395   .     S
C28    C41     1.399   .     S
C29    C43     1.385   .     S
C30    H31     0.929   .     S
C32    H33     0.929   .     S
C34    C35     1.508   .     S
C34    C43     1.397   .     S
C35    O45     1.211   .     S
C36    H37     0.929   .     S
C36    N46     1.298   .     S
C39    H40     0.930   1_565 S
H40    C39     0.930   1_545 S
C41    H42     0.930   .     S
C43    H44     0.929   .     S
N46    C47     1.486   .     S
N46    C51     1.432   .     S
C47    H48     0.961   .     S
C47    H49     0.960   .     S
C47    H50     0.960   .     S
C51    H52     0.959   .     S
C51    H53     0.960   .     S
C51    H54     0.960   1_565 S
H54    C51     0.960   1_545 S
O55    Eu57    2.641   1_454 S
O55    Eu169   2.367   .     S
O56    C27     1.240   1_655 S
O56    Eu57    2.453   1_554 S
Eu57   O58     2.458   1_556 S
Eu57   O64     2.451   .     S
Eu57   O68     2.457   .     S
Eu57   O171    2.369   .     S
Eu57   O4      2.517   1_556 S
Eu57   O7      2.451   1_556 S
Eu57   O55     2.641   1_656 S
Eu57   O167    2.367   .     S
Eu57   O56     2.453   1_556 S
O58    Eu57    2.458   1_554 S
O58    C75     1.241   .     S
O59    C75     1.259   1_455 S
O59    Eu169   2.369   .     S
O60    C69     1.264   1_565 S
O60    Eu1     2.517   1_565 S
O61    H62     0.847   .     S
O61    C91     1.300   .     S
O63    C69     1.255   .     S
O64    H65     0.888   .     S
O64    H66     0.885   .     S
C67    C72     1.491   .     S
C67    C95     1.372   .     S
C67    C97     1.412   .     S
O68    C92     1.230   .     S
C69    O60     1.264   1_545 S
C69    C76     1.513   .     S
N70    C88     1.334   .     S
N70    C95     1.334   .     S
C71    C75     1.528   .     S
C71    C77     1.380   .     S
C71    C86     1.392   .     S
C72    C81     1.378   .     S
C72    C86     1.384   .     S
C73    H74     0.930   .     S
C73    C76     1.386   1_565 S
C73    C90     1.387   .     S
C75    O59     1.259   1_655 S
C76    C73     1.386   1_545 S
C76    C79     1.381   .     S
C77    H78     0.930   1_655 S
C77    C94     1.408   .     S
H78    C77     0.930   1_455 S
C79    H80     0.931   .     S
C79    C85     1.402   .     S
C81    H82     0.930   .     S
C81    C94     1.408   .     S
C83    C94     1.484   .     S
C83    O111    1.284   .     S
C83    O112    1.240   1_655 S
C84    C85     1.477   .     S
C84    C88     1.395   .     S
C84    C97     1.399   .     S
C85    C99     1.385   .     S
C86    H87     0.929   .     S
C88    H89     0.929   .     S
C90    C91     1.508   .     S
C90    C99     1.397   1_565 S
C91    O101    1.211   .     S
C92    H93     0.929   .     S
C92    N102    1.298   .     S
C95    H96     0.930   .     S
C97    H98     0.930   .     S
C99    H100    0.929   .     S
C99    C90     1.397   1_545 S
N102   C103    1.486   .     S
N102   C107    1.432   .     S
C103   H104    0.961   .     S
C103   H105    0.960   .     S
C103   H106    0.960   .     S
C107   H108    0.959   .     S
C107   H109    0.960   .     S
C107   H110    0.960   .     S
O111   Eu1     2.641   1_655 S
O111   Eu113   2.367   1_545 S
O112   C83     1.240   1_455 S
Eu113  O114    2.458   .     S
Eu113  O120    2.451   .     S
Eu113  O124    2.457   1_565 S
Eu113  O172    2.517   1_565 S
Eu113  O175    2.451   .     S
Eu113  O223    2.641   1_655 S
Eu113  O111    2.367   1_565 S
Eu113  O224    2.453   .     S
O114   C131    1.241   1_565 S
O115   C131    1.259   1_455 S
O116   C125    1.264   .     S
O116   Eu169   2.517   1_556 S
O117   H118    0.847   .     S
O117   C147    1.300   .     S
O119   C125    1.255   .     S
O119   Eu169   2.451   1_556 S
O120   H121    0.888   .     S
O120   H122    0.885   .     S
C123   C128    1.491   .     S
C123   C151    1.372   .     S
C123   C153    1.412   .     S
O124   Eu113   2.457   1_545 S
O124   C148    1.230   .     S
C125   C132    1.513   .     S
N126   C144    1.334   .     S
N126   C151    1.334   .     S
C127   C131    1.528   .     S
C127   C133    1.380   .     S
C127   C142    1.392   .     S
C128   C137    1.378   .     S
C128   C142    1.384   .     S
C129   H130    0.930   .     S
C129   C132    1.386   .     S
C129   C146    1.387   .     S
C131   O114    1.241   1_545 S
C131   O115    1.259   1_655 S
C132   C135    1.381   .     S
C133   H134    0.930   1_655 S
C133   C150    1.408   .     S
H134   C133    0.930   1_455 S
C135   H136    0.931   .     S
C135   C141    1.402   .     S
C137   H138    0.930   .     S
C137   C150    1.408   .     S
C139   C150    1.484   .     S
C139   O167    1.284   .     S
C139   O168    1.240   1_655 S
C140   C141    1.477   .     S
C140   C144    1.395   .     S
C140   C153    1.399   .     S
C141   C155    1.385   .     S
C142   H143    0.929   .     S
C144   H145    0.929   .     S
C146   C147    1.508   .     S
C146   C155    1.397   .     S
C147   O157    1.211   .     S
C148   H149    0.929   .     S
C148   N158    1.298   .     S
C151   H152    0.930   1_545 S
H152   C151    0.930   1_565 S
C153   H154    0.930   .     S
C155   H156    0.929   .     S
N158   C159    1.486   .     S
N158   C163    1.432   .     S
C159   H160    0.961   .     S
C159   H161    0.960   .     S
C159   H162    0.960   .     S
C163   H164    0.959   .     S
C163   H165    0.960   .     S
C163   H166    0.960   1_545 S
H166   C163    0.960   1_565 S
O167   Eu169   2.641   1_656 S
O168   C139    1.240   1_455 S
O168   Eu169   2.453   1_556 S
Eu169  O170    2.458   1_554 S
Eu169  O176    2.451   .     S
Eu169  O180    2.457   .     S
Eu169  O116    2.517   1_554 S
Eu169  O119    2.451   1_554 S
Eu169  O167    2.641   1_454 S
Eu169  O168    2.453   1_554 S
O170   Eu169   2.458   1_556 S
O170   C187    1.241   .     S
O171   C187    1.259   1_655 S
O172   C181    1.264   1_545 S
O172   Eu113   2.517   1_545 S
O173   H174    0.847   .     S
O173   C203    1.300   .     S
O175   C181    1.255   .     S
O176   H177    0.888   .     S
O176   H178    0.885   .     S
C179   C184    1.491   .     S
C179   C207    1.372   .     S
C179   C209    1.412   .     S
O180   C204    1.230   .     S
C181   O172    1.264   1_565 S
C181   C188    1.513   .     S
N182   C200    1.334   .     S
N182   C207    1.334   .     S
C183   C187    1.528   .     S
C183   C189    1.380   .     S
C183   C198    1.392   .     S
C184   C193    1.378   .     S
C184   C198    1.384   .     S
C185   H186    0.930   .     S
C185   C188    1.386   1_545 S
C185   C202    1.387   .     S
C187   O171    1.259   1_455 S
C188   C185    1.386   1_565 S
C188   C191    1.381   .     S
C189   H190    0.930   1_455 S
C189   C206    1.408   .     S
H190   C189    0.930   1_655 S
C191   H192    0.931   .     S
C191   C197    1.402   .     S
C193   H194    0.930   .     S
C193   C206    1.408   .     S
C195   C206    1.484   .     S
C195   O223    1.284   .     S
C195   O224    1.240   1_455 S
C196   C197    1.477   .     S
C196   C200    1.395   .     S
C196   C209    1.399   .     S
C197   C211    1.385   .     S
C198   H199    0.929   .     S
C200   H201    0.929   .     S
C202   C203    1.508   .     S
C202   C211    1.397   1_545 S
C203   O213    1.211   .     S
C204   H205    0.929   .     S
C204   N214    1.298   .     S
C207   H208    0.930   .     S
C209   H210    0.930   .     S
C211   H212    0.929   .     S
C211   C202    1.397   1_565 S
N214   C215    1.486   .     S
N214   C219    1.432   .     S
C215   H216    0.961   .     S
C215   H217    0.960   .     S
C215   H218    0.960   .     S
C219   H220    0.959   .     S
C219   H221    0.960   .     S
C219   H222    0.960   .     S
O223   Eu113   2.641   1_455 S
O223   Eu1     2.367   1_565 S
O224   C195    1.240   1_655 S
