data_PAZNAJ_FSR
_audit_creation_date              2024-06-11
_audit_creation_method            'Materials Studio'
_symmetry_space_group_name_H-M    'P1'
_symmetry_Int_Tables_number       1
_symmetry_cell_setting            triclinic
loop_
_symmetry_equiv_pos_as_xyz
  x,y,z
_cell_length_a                    17.8220
_cell_length_b                    9.0411
_cell_length_c                    30.2910
_cell_angle_alpha                 90.0000
_cell_angle_beta                  106.9660
_cell_angle_gamma                 90.0000
loop_
_atom_site_label
_atom_site_type_symbol
_atom_site_fract_x
_atom_site_fract_y
_atom_site_fract_z
_atom_site_U_iso_or_equiv
_atom_site_adp_type
_atom_site_occupancy
Pt1    Pt    0.78623   0.58164   0.98398   0.00000  Uiso   1.00
Pt2    Pt    0.76149   0.45177   0.05265   0.00000  Uiso   1.00
Cl3    Cl    0.82334   0.72300   0.92440   0.00000  Uiso   1.00
S4     S     0.79879   0.79991   0.02377   0.00000  Uiso   1.00
S5     S     0.91744   0.53950   0.01423   0.00000  Uiso   1.00
N6     N     0.78030   0.38130   0.94740   0.00000  Uiso   1.00
N7     N     0.66480   0.61410   0.95320   0.00000  Uiso   1.00
Cl8    Cl    0.73279   0.30085   0.11284   0.00000  Uiso   1.00
S9     S     0.80227   0.23382   0.02830   0.00000  Uiso   1.00
S10    S     0.63592   0.40170   0.00943   0.00000  Uiso   1.00
N11    N     0.72520   0.65060   0.07649   0.00000  Uiso   1.00
N12    N     0.87790   0.49210   0.09304   0.00000  Uiso   1.00
C13    C     0.74530   0.78350   0.06330   0.00000  Uiso   1.00
C14    C     0.93610   0.51290   0.07310   0.00000  Uiso   1.00
C15    C     0.78870   0.24910   0.96910   0.00000  Uiso   1.00
C16    C     0.77400   0.38350   0.90140   0.00000  Uiso   1.00
C17    C     0.61130   0.52730   0.96460   0.00000  Uiso   1.00
C18    C     0.63940   0.71360   0.91820   0.00000  Uiso   1.00
C19    C     0.68220   0.64670   0.10680   0.00000  Uiso   1.00
C20    C     0.89760   0.48030   0.13960   0.00000  Uiso   1.00
C21    C     0.72390   0.91320   0.08070   0.00000  Uiso   1.00
C22    C     0.01500   0.51620   0.09980   0.00000  Uiso   1.00
C23    C     0.78920   0.11770   0.94500   0.00000  Uiso   1.00
C24    C     0.77680   0.25870   0.87690   0.00000  Uiso   1.00
H25    H     0.76741   0.47598   0.88591   0.00000  Uiso   1.00
C26    C     0.53010   0.53490   0.93880   0.00000  Uiso   1.00
C27    C     0.56120   0.71950   0.89220   0.00000  Uiso   1.00
H28    H     0.67585   0.78027   0.91156   0.00000  Uiso   1.00
C29    C     0.66070   0.77150   0.12560   0.00000  Uiso   1.00
H30    H     0.66633   0.55326   0.11534   0.00000  Uiso   1.00
C31    C     0.97400   0.48620   0.16690   0.00000  Uiso   1.00
H32    H     0.85714   0.46754   0.15386   0.00000  Uiso   1.00
H33    H     0.73851   0.00590   0.07098   0.00000  Uiso   1.00
C34    C     0.68170   0.90840   0.11200   0.00000  Uiso   1.00
H35    H     0.05529   0.52854   0.08541   0.00000  Uiso   1.00
C36    C     0.03360   0.50160   0.14640   0.00000  Uiso   1.00
H37    H     0.79403   0.02536   0.96057   0.00000  Uiso   1.00
C38    C     0.78280   0.12260   0.89880   0.00000  Uiso   1.00
C39    C     0.76990   0.26990   0.82580   0.00000  Uiso   1.00
H40    H     0.49337   0.47418   0.94760   0.00000  Uiso   1.00
C41    C     0.50510   0.62500   0.90300   0.00000  Uiso   1.00
C42    C     0.53370   0.83050   0.85230   0.00000  Uiso   1.00
C43    C     0.61310   0.76020   0.15940   0.00000  Uiso   1.00
C44    C     0.99330   0.47140   0.21840   0.00000  Uiso   1.00
H45    H     0.66708   0.99714   0.12410   0.00000  Uiso   1.00
H46    H     0.08686   0.50197   0.16477   0.00000  Uiso   1.00
H47    H     0.78247   0.03377   0.88196   0.00000  Uiso   1.00
O48    O     0.77830   0.39470   0.81033   0.00000  Uiso   1.00
O49    O     0.75650   0.15570   0.80290   0.00000  Uiso   1.00
H50    H     0.45152   0.62649   0.88508   0.00000  Uiso   1.00
O51    O     0.57860   0.93350   0.85330   0.00000  Uiso   1.00
O52    O     0.46980   0.81340   0.82300   0.00000  Uiso   1.00
O53    O     0.58710   0.88340   0.16880   0.00000  Uiso   1.00
O54    O     0.60360   0.63800   0.17450   0.00000  Uiso   1.00
O55    O     0.06150   0.48450   0.24300   0.00000  Uiso   1.00
O56    O     0.93660   0.44340   0.23487   0.00000  Uiso   1.00
Co57   Co    0.49634   0.06871   0.80271   0.00000  Uiso   1.00
N58    N     0.42950   0.75990   0.18180   0.00000  Uiso   1.00
C59    C     0.43890   0.63840   0.20920   0.00000  Uiso   1.00
H60    H     0.37815   0.80232   0.18273   0.00000  Uiso   1.00
C61    C     0.41540   0.71500   0.13320   0.00000  Uiso   1.00
H62    H     0.39143   0.57744   0.19967   0.00000  Uiso   1.00
H63    H     0.44823   0.66918   0.24135   0.00000  Uiso   1.00
H64    H     0.48384   0.58091   0.20629   0.00000  Uiso   1.00
H65    H     0.36786   0.65415   0.12357   0.00000  Uiso   1.00
H66    H     0.40864   0.80320   0.11368   0.00000  Uiso   1.00
H67    H     0.46028   0.65762   0.13020   0.00000  Uiso   1.00
Pt68   Pt    0.71377   0.08164   0.51602   0.00000  Uiso   1.00
Pt69   Pt    0.73851   0.95177   0.44735   0.00000  Uiso   1.00
Cl70   Cl    0.67666   0.22300   0.57560   0.00000  Uiso   1.00
S71    S     0.70121   0.29991   0.47623   0.00000  Uiso   1.00
S72    S     0.58256   0.03950   0.48577   0.00000  Uiso   1.00
N73    N     0.71970   0.88130   0.55260   0.00000  Uiso   1.00
N74    N     0.83520   0.11410   0.54680   0.00000  Uiso   1.00
Cl75   Cl    0.76721   0.80085   0.38716   0.00000  Uiso   1.00
S76    S     0.69773   0.73382   0.47170   0.00000  Uiso   1.00
S77    S     0.86408   0.90170   0.49057   0.00000  Uiso   1.00
N78    N     0.77480   0.15060   0.42351   0.00000  Uiso   1.00
N79    N     0.62210   0.99210   0.40696   0.00000  Uiso   1.00
C80    C     0.75470   0.28350   0.43670   0.00000  Uiso   1.00
C81    C     0.56390   0.01290   0.42690   0.00000  Uiso   1.00
C82    C     0.71130   0.74910   0.53090   0.00000  Uiso   1.00
C83    C     0.72600   0.88350   0.59860   0.00000  Uiso   1.00
C84    C     0.88870   0.02730   0.53540   0.00000  Uiso   1.00
C85    C     0.86060   0.21360   0.58180   0.00000  Uiso   1.00
C86    C     0.81780   0.14670   0.39320   0.00000  Uiso   1.00
C87    C     0.60240   0.98030   0.36040   0.00000  Uiso   1.00
C88    C     0.77610   0.41320   0.41930   0.00000  Uiso   1.00
C89    C     0.48500   0.01620   0.40020   0.00000  Uiso   1.00
C90    C     0.71080   0.61770   0.55500   0.00000  Uiso   1.00
C91    C     0.72320   0.75870   0.62310   0.00000  Uiso   1.00
H92    H     0.73259   0.97598   0.61409   0.00000  Uiso   1.00
C93    C     0.96990   0.03490   0.56120   0.00000  Uiso   1.00
C94    C     0.93880   0.21950   0.60780   0.00000  Uiso   1.00
H95    H     0.82415   0.28027   0.58844   0.00000  Uiso   1.00
C96    C     0.83930   0.27150   0.37440   0.00000  Uiso   1.00
H97    H     0.83367   0.05326   0.38466   0.00000  Uiso   1.00
C98    C     0.52600   0.98620   0.33310   0.00000  Uiso   1.00
H99    H     0.64286   0.96754   0.34614   0.00000  Uiso   1.00
H100   H     0.76149   0.50590   0.42902   0.00000  Uiso   1.00
C101   C     0.81830   0.40840   0.38800   0.00000  Uiso   1.00
H102   H     0.44471   0.02854   0.41459   0.00000  Uiso   1.00
C103   C     0.46640   0.00160   0.35360   0.00000  Uiso   1.00
H104   H     0.70597   0.52536   0.53943   0.00000  Uiso   1.00
C105   C     0.71720   0.62260   0.60120   0.00000  Uiso   1.00
C106   C     0.73010   0.76990   0.67420   0.00000  Uiso   1.00
H107   H     0.00663   0.97418   0.55240   0.00000  Uiso   1.00
C108   C     0.99490   0.12500   0.59700   0.00000  Uiso   1.00
C109   C     0.96630   0.33050   0.64770   0.00000  Uiso   1.00
C110   C     0.88690   0.26020   0.34060   0.00000  Uiso   1.00
C111   C     0.50670   0.97140   0.28160   0.00000  Uiso   1.00
H112   H     0.83292   0.49714   0.37590   0.00000  Uiso   1.00
H113   H     0.41314   0.00197   0.33523   0.00000  Uiso   1.00
H114   H     0.71753   0.53377   0.61804   0.00000  Uiso   1.00
O115   O     0.72170   0.89470   0.68967   0.00000  Uiso   1.00
O116   O     0.74350   0.65570   0.69710   0.00000  Uiso   1.00
H117   H     0.04848   0.12649   0.61492   0.00000  Uiso   1.00
O118   O     0.92140   0.43350   0.64670   0.00000  Uiso   1.00
O119   O     0.03020   0.31340   0.67700   0.00000  Uiso   1.00
O120   O     0.91290   0.38340   0.33120   0.00000  Uiso   1.00
O121   O     0.89640   0.13800   0.32550   0.00000  Uiso   1.00
O122   O     0.43850   0.98450   0.25700   0.00000  Uiso   1.00
O123   O     0.56340   0.94340   0.26513   0.00000  Uiso   1.00
Co124  Co    0.00366   0.56871   0.69729   0.00000  Uiso   1.00
N125   N     0.07050   0.25990   0.31820   0.00000  Uiso   1.00
C126   C     0.06110   0.13840   0.29080   0.00000  Uiso   1.00
H127   H     0.12185   0.30232   0.31727   0.00000  Uiso   1.00
C128   C     0.08460   0.21500   0.36680   0.00000  Uiso   1.00
H129   H     0.10857   0.07744   0.30033   0.00000  Uiso   1.00
H130   H     0.05177   0.16918   0.25865   0.00000  Uiso   1.00
H131   H     0.01616   0.08091   0.29371   0.00000  Uiso   1.00
H132   H     0.13214   0.15415   0.37643   0.00000  Uiso   1.00
H133   H     0.09136   0.30320   0.38632   0.00000  Uiso   1.00
H134   H     0.03972   0.15762   0.36980   0.00000  Uiso   1.00
Pt135  Pt    0.21377   0.41836   0.01602   0.00000  Uiso   1.00
Pt136  Pt    0.23851   0.54823   0.94735   0.00000  Uiso   1.00
Cl137  Cl    0.17666   0.27700   0.07560   0.00000  Uiso   1.00
S138   S     0.20121   0.20009   0.97623   0.00000  Uiso   1.00
S139   S     0.08256   0.46050   0.98577   0.00000  Uiso   1.00
N140   N     0.21970   0.61870   0.05260   0.00000  Uiso   1.00
N141   N     0.33520   0.38590   0.04680   0.00000  Uiso   1.00
Cl142  Cl    0.26721   0.69915   0.88716   0.00000  Uiso   1.00
S143   S     0.19773   0.76618   0.97170   0.00000  Uiso   1.00
S144   S     0.36408   0.59830   0.99057   0.00000  Uiso   1.00
N145   N     0.27480   0.34940   0.92351   0.00000  Uiso   1.00
N146   N     0.12210   0.50790   0.90696   0.00000  Uiso   1.00
C147   C     0.25470   0.21650   0.93670   0.00000  Uiso   1.00
C148   C     0.06390   0.48710   0.92690   0.00000  Uiso   1.00
C149   C     0.21130   0.75090   0.03090   0.00000  Uiso   1.00
C150   C     0.22600   0.61650   0.09860   0.00000  Uiso   1.00
C151   C     0.38870   0.47270   0.03540   0.00000  Uiso   1.00
C152   C     0.36060   0.28640   0.08180   0.00000  Uiso   1.00
C153   C     0.31780   0.35330   0.89320   0.00000  Uiso   1.00
C154   C     0.10240   0.51970   0.86040   0.00000  Uiso   1.00
C155   C     0.27610   0.08680   0.91930   0.00000  Uiso   1.00
C156   C     0.98500   0.48380   0.90020   0.00000  Uiso   1.00
C157   C     0.21080   0.88230   0.05500   0.00000  Uiso   1.00
C158   C     0.22320   0.74130   0.12310   0.00000  Uiso   1.00
H159   H     0.23259   0.52402   0.11409   0.00000  Uiso   1.00
C160   C     0.46990   0.46510   0.06120   0.00000  Uiso   1.00
C161   C     0.43880   0.28050   0.10780   0.00000  Uiso   1.00
H162   H     0.32415   0.21973   0.08844   0.00000  Uiso   1.00
C163   C     0.33930   0.22850   0.87440   0.00000  Uiso   1.00
H164   H     0.33367   0.44674   0.88466   0.00000  Uiso   1.00
C165   C     0.02600   0.51380   0.83310   0.00000  Uiso   1.00
H166   H     0.14286   0.53246   0.84614   0.00000  Uiso   1.00
H167   H     0.26149   0.99410   0.92902   0.00000  Uiso   1.00
C168   C     0.31830   0.09160   0.88800   0.00000  Uiso   1.00
H169   H     0.94471   0.47146   0.91459   0.00000  Uiso   1.00
C170   C     0.96640   0.49840   0.85360   0.00000  Uiso   1.00
H171   H     0.20597   0.97464   0.03943   0.00000  Uiso   1.00
C172   C     0.21720   0.87740   0.10120   0.00000  Uiso   1.00
C173   C     0.23010   0.73010   0.17420   0.00000  Uiso   1.00
H174   H     0.50663   0.52582   0.05240   0.00000  Uiso   1.00
C175   C     0.49490   0.37500   0.09700   0.00000  Uiso   1.00
C176   C     0.46630   0.16950   0.14770   0.00000  Uiso   1.00
C177   C     0.38690   0.23980   0.84060   0.00000  Uiso   1.00
C178   C     0.00670   0.52860   0.78160   0.00000  Uiso   1.00
H179   H     0.33292   0.00286   0.87590   0.00000  Uiso   1.00
H180   H     0.91314   0.49804   0.83523   0.00000  Uiso   1.00
H181   H     0.21753   0.96623   0.11804   0.00000  Uiso   1.00
O182   O     0.22170   0.60530   0.18967   0.00000  Uiso   1.00
O183   O     0.24350   0.84430   0.19710   0.00000  Uiso   1.00
H184   H     0.54848   0.37351   0.11492   0.00000  Uiso   1.00
O185   O     0.42140   0.06650   0.14670   0.00000  Uiso   1.00
O186   O     0.53020   0.18660   0.17700   0.00000  Uiso   1.00
O187   O     0.41290   0.11660   0.83120   0.00000  Uiso   1.00
O188   O     0.39640   0.36200   0.82550   0.00000  Uiso   1.00
O189   O     0.93850   0.51550   0.75700   0.00000  Uiso   1.00
O190   O     0.06340   0.55660   0.76513   0.00000  Uiso   1.00
Co191  Co    0.50366   0.93129   0.19729   0.00000  Uiso   1.00
N192   N     0.57050   0.24010   0.81820   0.00000  Uiso   1.00
C193   C     0.56110   0.36160   0.79080   0.00000  Uiso   1.00
H194   H     0.62185   0.19768   0.81727   0.00000  Uiso   1.00
C195   C     0.58460   0.28500   0.86680   0.00000  Uiso   1.00
H196   H     0.60857   0.42256   0.80033   0.00000  Uiso   1.00
H197   H     0.55177   0.33082   0.75865   0.00000  Uiso   1.00
H198   H     0.51616   0.41909   0.79371   0.00000  Uiso   1.00
H199   H     0.63214   0.34585   0.87643   0.00000  Uiso   1.00
H200   H     0.59136   0.19680   0.88632   0.00000  Uiso   1.00
H201   H     0.53972   0.34238   0.86980   0.00000  Uiso   1.00
Pt202  Pt    0.28623   0.91836   0.48398   0.00000  Uiso   1.00
Pt203  Pt    0.26149   0.04823   0.55265   0.00000  Uiso   1.00
Cl204  Cl    0.32334   0.77700   0.42440   0.00000  Uiso   1.00
S205   S     0.29879   0.70009   0.52377   0.00000  Uiso   1.00
S206   S     0.41744   0.96050   0.51423   0.00000  Uiso   1.00
N207   N     0.28030   0.11870   0.44740   0.00000  Uiso   1.00
N208   N     0.16480   0.88590   0.45320   0.00000  Uiso   1.00
Cl209  Cl    0.23279   0.19915   0.61284   0.00000  Uiso   1.00
S210   S     0.30227   0.26618   0.52830   0.00000  Uiso   1.00
S211   S     0.13592   0.09830   0.50943   0.00000  Uiso   1.00
N212   N     0.22520   0.84940   0.57649   0.00000  Uiso   1.00
N213   N     0.37790   0.00790   0.59304   0.00000  Uiso   1.00
C214   C     0.24530   0.71650   0.56330   0.00000  Uiso   1.00
C215   C     0.43610   0.98710   0.57310   0.00000  Uiso   1.00
C216   C     0.28870   0.25090   0.46910   0.00000  Uiso   1.00
C217   C     0.27400   0.11650   0.40140   0.00000  Uiso   1.00
C218   C     0.11130   0.97270   0.46460   0.00000  Uiso   1.00
C219   C     0.13940   0.78640   0.41820   0.00000  Uiso   1.00
C220   C     0.18220   0.85330   0.60680   0.00000  Uiso   1.00
C221   C     0.39760   0.01970   0.63960   0.00000  Uiso   1.00
C222   C     0.22390   0.58680   0.58070   0.00000  Uiso   1.00
C223   C     0.51500   0.98380   0.59980   0.00000  Uiso   1.00
C224   C     0.28920   0.38230   0.44500   0.00000  Uiso   1.00
C225   C     0.27680   0.24130   0.37690   0.00000  Uiso   1.00
H226   H     0.26741   0.02402   0.38591   0.00000  Uiso   1.00
C227   C     0.03010   0.96510   0.43880   0.00000  Uiso   1.00
C228   C     0.06120   0.78050   0.39220   0.00000  Uiso   1.00
H229   H     0.17585   0.71973   0.41156   0.00000  Uiso   1.00
C230   C     0.16070   0.72850   0.62560   0.00000  Uiso   1.00
H231   H     0.16633   0.94674   0.61534   0.00000  Uiso   1.00
C232   C     0.47400   0.01380   0.66690   0.00000  Uiso   1.00
H233   H     0.35714   0.03246   0.65387   0.00000  Uiso   1.00
H234   H     0.23851   0.49410   0.57098   0.00000  Uiso   1.00
C235   C     0.18170   0.59160   0.61200   0.00000  Uiso   1.00
H236   H     0.55529   0.97146   0.58541   0.00000  Uiso   1.00
C237   C     0.53360   0.99840   0.64640   0.00000  Uiso   1.00
H238   H     0.29403   0.47464   0.46057   0.00000  Uiso   1.00
C239   C     0.28280   0.37740   0.39880   0.00000  Uiso   1.00
C240   C     0.26990   0.23010   0.32580   0.00000  Uiso   1.00
H241   H     0.99337   0.02582   0.44760   0.00000  Uiso   1.00
C242   C     0.00510   0.87500   0.40300   0.00000  Uiso   1.00
C243   C     0.03370   0.66950   0.35230   0.00000  Uiso   1.00
C244   C     0.11310   0.73980   0.65940   0.00000  Uiso   1.00
C245   C     0.49330   0.02860   0.71840   0.00000  Uiso   1.00
H246   H     0.16708   0.50286   0.62410   0.00000  Uiso   1.00
H247   H     0.58686   0.99804   0.66477   0.00000  Uiso   1.00
H248   H     0.28247   0.46623   0.38196   0.00000  Uiso   1.00
O249   O     0.27830   0.10530   0.31033   0.00000  Uiso   1.00
O250   O     0.25650   0.34430   0.30290   0.00000  Uiso   1.00
H251   H     0.95152   0.87351   0.38508   0.00000  Uiso   1.00
O252   O     0.07860   0.56650   0.35330   0.00000  Uiso   1.00
O253   O     0.96980   0.68660   0.32300   0.00000  Uiso   1.00
O254   O     0.08710   0.61660   0.66880   0.00000  Uiso   1.00
O255   O     0.10360   0.86200   0.67450   0.00000  Uiso   1.00
O256   O     0.56150   0.01550   0.74300   0.00000  Uiso   1.00
O257   O     0.43660   0.05660   0.73487   0.00000  Uiso   1.00
Co258  Co    0.99634   0.43129   0.30271   0.00000  Uiso   1.00
N259   N     0.92950   0.74010   0.68180   0.00000  Uiso   1.00
C260   C     0.93890   0.86160   0.70920   0.00000  Uiso   1.00
H261   H     0.87815   0.69768   0.68273   0.00000  Uiso   1.00
C262   C     0.91540   0.78500   0.63320   0.00000  Uiso   1.00
H263   H     0.89143   0.92256   0.69967   0.00000  Uiso   1.00
H264   H     0.94823   0.83082   0.74135   0.00000  Uiso   1.00
H265   H     0.98384   0.91909   0.70629   0.00000  Uiso   1.00
H266   H     0.86786   0.84585   0.62357   0.00000  Uiso   1.00
H267   H     0.90864   0.69680   0.61368   0.00000  Uiso   1.00
H268   H     0.96028   0.84238   0.63020   0.00000  Uiso   1.00
loop_
_geom_bond_atom_site_label_1
_geom_bond_atom_site_label_2
_geom_bond_distance
_geom_bond_site_symmetry_2
_ccdc_geom_bond_type
Pt1    Pt2     2.537   1_556 S
Pt1    Cl3     2.454   .     S
Pt1    S4      2.289   1_556 S
Pt1    S5      2.281   1_556 S
Pt1    N6      2.110   .     S
Pt1    N7      2.112   .     S
Pt2    Pt1     2.537   1_554 S
Pt2    Cl8     2.448   .     S
Pt2    S9      2.295   .     S
Pt2    S10     2.284   .     S
Pt2    N11     2.108   .     S
Pt2    N12     2.110   .     S
S4     Pt1     2.289   1_554 S
S4     C13     1.741   .     S
S5     Pt1     2.281   1_554 S
S5     C14     1.733   .     S
N6     C15     1.351   .     S
N6     C16     1.365   .     S
N7     C17     1.355   .     S
N7     C18     1.363   .     S
S9     C15     1.744   1_554 S
S10    C17     1.726   1_554 S
N11    C19     1.357   .     S
N11    C13     1.347   .     S
N12    C20     1.355   .     S
N12    C14     1.357   .     S
C13    C21     1.384   .     S
C14    C22     1.403   1_655 S
C15    C23     1.396   .     S
C15    S9      1.744   1_556 S
C16    C24     1.359   .     S
C16    H25     0.949   .     S
C17    C26     1.432   .     S
C17    S10     1.726   1_556 S
C18    C27     1.387   .     S
C18    H28     0.950   .     S
C19    C29     1.368   .     S
C19    H30     0.950   .     S
C20    C31     1.372   .     S
C20    H32     0.950   .     S
C21    H33     0.949   1_565 S
C21    C34     1.372   .     S
C22    C14     1.403   1_455 S
C22    H35     0.949   .     S
C22    C36     1.359   .     S
C23    H37     0.950   .     S
C23    C38     1.371   .     S
C24    C39     1.520   .     S
C24    C38     1.387   .     S
C26    H40     0.950   .     S
C26    C41     1.325   .     S
C27    C42     1.537   .     S
C27    C41     1.424   .     S
C29    C43     1.512   .     S
C29    C34     1.390   .     S
C31    C44     1.502   .     S
C31    C36     1.385   1_655 S
H33    C21     0.949   1_545 S
C34    H45     0.950   .     S
C36    H46     0.950   .     S
C36    C31     1.385   1_455 S
C38    H47     0.950   .     S
C39    O48     1.247   .     S
C39    O49     1.228   .     S
C41    H50     0.951   .     S
C42    O51     1.222   .     S
C42    O52     1.232   .     S
C43    O53     1.270   .     S
C43    O54     1.226   .     S
C44    O55     1.232   1_655 S
C44    O56     1.276   .     S
O51    Co57    2.164   1_565 S
O53    Co191   1.973   .     S
O55    C44     1.232   1_455 S
O56    Co258   2.023   .     S
Co57   O51     2.164   1_545 S
Co57   O187    1.973   .     S
Co57   O257    2.023   .     S
Co57   N192    2.002   .     S
N58    C59     1.357   .     S
N58    H60     1.000   .     S
N58    C61     1.476   .     S
N58    Co191   2.002   .     S
C59    H62     0.980   .     S
C59    H63     0.979   .     S
C59    H64     0.980   .     S
C61    H65     0.980   .     S
C61    H66     0.979   .     S
C61    H67     0.980   .     S
Pt68   Pt69    2.537   1_545 S
Pt68   Cl70    2.454   .     S
Pt68   S71     2.289   .     S
Pt68   S72     2.281   .     S
Pt68   N73     2.110   1_545 S
Pt68   N74     2.112   .     S
Pt69   Pt68    2.537   1_565 S
Pt69   Cl75    2.448   .     S
Pt69   S76     2.295   .     S
Pt69   S77     2.284   .     S
Pt69   N78     2.108   1_565 S
Pt69   N79     2.110   .     S
S71    C80     1.741   .     S
S72    C81     1.733   .     S
N73    Pt68    2.110   1_565 S
N73    C82     1.351   .     S
N73    C83     1.365   .     S
N74    C84     1.355   .     S
N74    C85     1.363   .     S
S76    C82     1.744   .     S
S77    C84     1.726   1_565 S
N78    Pt69    2.108   1_545 S
N78    C86     1.357   .     S
N78    C80     1.347   .     S
N79    C87     1.355   .     S
N79    C81     1.357   1_565 S
C80    C88     1.384   .     S
C81    C89     1.403   .     S
C81    N79     1.357   1_545 S
C82    C90     1.396   .     S
C83    C91     1.359   .     S
C83    H92     0.949   .     S
C84    C93     1.432   .     S
C84    S77     1.726   1_545 S
C85    C94     1.387   .     S
C85    H95     0.950   .     S
C86    C96     1.368   .     S
C86    H97     0.950   .     S
C87    C98     1.372   .     S
C87    H99     0.950   .     S
C88    H100    0.949   .     S
C88    C101    1.372   .     S
C89    H102    0.949   .     S
C89    C103    1.359   .     S
C90    H104    0.950   .     S
C90    C105    1.371   .     S
C91    C106    1.520   .     S
C91    C105    1.387   .     S
C93    H107    0.950   1_645 S
C93    C108    1.325   .     S
C94    C109    1.537   .     S
C94    C108    1.424   .     S
C96    C110    1.512   .     S
C96    C101    1.390   .     S
C98    C111    1.502   .     S
C98    C103    1.385   1_565 S
C101   H112    0.950   .     S
C103   H113    0.950   .     S
C103   C98     1.385   1_545 S
C105   H114    0.950   .     S
C106   O115    1.247   .     S
C106   O116    1.228   .     S
H107   C93     0.950   1_465 S
C108   H117    0.951   1_655 S
C109   O118    1.222   .     S
C109   O119    1.232   1_655 S
C110   O120    1.270   .     S
C110   O121    1.226   .     S
C111   O122    1.232   .     S
C111   O123    1.276   .     S
H117   C108    0.951   1_455 S
O118   Co124   2.164   1_655 S
O119   C109    1.232   1_455 S
O120   Co258   1.973   .     S
O123   Co191   2.023   .     S
Co124  O118    2.164   1_455 S
Co124  O254    1.973   .     S
Co124  O190    2.023   .     S
Co124  N259    2.002   1_455 S
N125   C126    1.357   .     S
N125   H127    1.000   .     S
N125   C128    1.476   .     S
N125   Co258   2.002   1_455 S
C126   H129    0.980   .     S
C126   H130    0.979   .     S
C126   H131    0.980   .     S
C128   H132    0.980   .     S
C128   H133    0.979   .     S
C128   H134    0.980   .     S
Pt135  Pt136   2.537   1_554 S
Pt135  Cl137   2.454   .     S
Pt135  S138    2.289   1_554 S
Pt135  S139    2.281   1_554 S
Pt135  N140    2.110   .     S
Pt135  N141    2.112   .     S
Pt136  Pt135   2.537   1_556 S
Pt136  Cl142   2.448   .     S
Pt136  S143    2.295   .     S
Pt136  S144    2.284   .     S
Pt136  N145    2.108   .     S
Pt136  N146    2.110   .     S
S138   Pt135   2.289   1_556 S
S138   C147    1.741   .     S
S139   Pt135   2.281   1_556 S
S139   C148    1.733   .     S
N140   C149    1.351   .     S
N140   C150    1.365   .     S
N141   C151    1.355   .     S
N141   C152    1.363   .     S
S143   C149    1.744   1_556 S
S144   C151    1.726   1_556 S
N145   C153    1.357   .     S
N145   C147    1.347   .     S
N146   C154    1.355   .     S
N146   C148    1.357   .     S
C147   C155    1.384   .     S
C148   C156    1.403   1_455 S
C149   C157    1.396   .     S
C149   S143    1.744   1_554 S
C150   C158    1.359   .     S
C150   H159    0.949   .     S
C151   C160    1.432   .     S
C151   S144    1.726   1_554 S
C152   C161    1.387   .     S
C152   H162    0.950   .     S
C153   C163    1.368   .     S
C153   H164    0.950   .     S
C154   C165    1.372   .     S
C154   H166    0.950   .     S
C155   H167    0.949   1_545 S
C155   C168    1.372   .     S
C156   C148    1.403   1_655 S
C156   H169    0.949   .     S
C156   C170    1.359   .     S
C157   H171    0.950   .     S
C157   C172    1.371   .     S
C158   C173    1.520   .     S
C158   C172    1.387   .     S
C160   H174    0.950   .     S
C160   C175    1.325   .     S
C161   C176    1.537   .     S
C161   C175    1.424   .     S
C163   C177    1.512   .     S
C163   C168    1.390   .     S
C165   C178    1.502   .     S
C165   C170    1.385   1_455 S
H167   C155    0.949   1_565 S
C168   H179    0.950   .     S
C170   H180    0.950   .     S
C170   C165    1.385   1_655 S
C172   H181    0.950   .     S
C173   O182    1.247   .     S
C173   O183    1.228   .     S
C175   H184    0.951   .     S
C176   O185    1.222   .     S
C176   O186    1.232   .     S
C177   O187    1.270   .     S
C177   O188    1.226   .     S
C178   O189    1.232   1_455 S
C178   O190    1.276   .     S
O185   Co191   2.164   1_545 S
O189   C178    1.232   1_655 S
Co191  O185    2.164   1_565 S
N192   C193    1.357   .     S
N192   H194    1.000   .     S
N192   C195    1.476   .     S
C193   H196    0.980   .     S
C193   H197    0.979   .     S
C193   H198    0.980   .     S
C195   H199    0.980   .     S
C195   H200    0.979   .     S
C195   H201    0.980   .     S
Pt202  Pt203   2.537   1_565 S
Pt202  Cl204   2.454   .     S
Pt202  S205    2.289   .     S
Pt202  S206    2.281   .     S
Pt202  N207    2.110   1_565 S
Pt202  N208    2.112   .     S
Pt203  Pt202   2.537   1_545 S
Pt203  Cl209   2.448   .     S
Pt203  S210    2.295   .     S
Pt203  S211    2.284   .     S
Pt203  N212    2.108   1_545 S
Pt203  N213    2.110   .     S
S205   C214    1.741   .     S
S206   C215    1.733   .     S
N207   Pt202   2.110   1_545 S
N207   C216    1.351   .     S
N207   C217    1.365   .     S
N208   C218    1.355   .     S
N208   C219    1.363   .     S
S210   C216    1.744   .     S
S211   C218    1.726   1_545 S
N212   Pt203   2.108   1_565 S
N212   C220    1.357   .     S
N212   C214    1.347   .     S
N213   C221    1.355   .     S
N213   C215    1.357   1_545 S
C214   C222    1.384   .     S
C215   C223    1.403   .     S
C215   N213    1.357   1_565 S
C216   C224    1.396   .     S
C217   C225    1.359   .     S
C217   H226    0.949   .     S
C218   C227    1.432   .     S
C218   S211    1.726   1_565 S
C219   C228    1.387   .     S
C219   H229    0.950   .     S
C220   C230    1.368   .     S
C220   H231    0.950   .     S
C221   C232    1.372   .     S
C221   H233    0.950   .     S
C222   H234    0.949   .     S
C222   C235    1.372   .     S
C223   H236    0.949   .     S
C223   C237    1.359   .     S
C224   H238    0.950   .     S
C224   C239    1.371   .     S
C225   C240    1.520   .     S
C225   C239    1.387   .     S
C227   H241    0.950   1_465 S
C227   C242    1.325   .     S
C228   C243    1.537   .     S
C228   C242    1.424   .     S
C230   C244    1.512   .     S
C230   C235    1.390   .     S
C232   C245    1.502   .     S
C232   C237    1.385   1_545 S
C235   H246    0.950   .     S
C237   H247    0.950   .     S
C237   C232    1.385   1_565 S
C239   H248    0.950   .     S
C240   O249    1.247   .     S
C240   O250    1.228   .     S
H241   C227    0.950   1_645 S
C242   H251    0.951   1_455 S
C243   O252    1.222   .     S
C243   O253    1.232   1_455 S
C244   O254    1.270   .     S
C244   O255    1.226   .     S
C245   O256    1.232   .     S
C245   O257    1.276   .     S
H251   C242    0.951   1_655 S
O252   Co258   2.164   1_455 S
O253   C243    1.232   1_655 S
Co258  O252    2.164   1_655 S
Co258  N125    2.002   1_655 S
N259   C260    1.357   .     S
N259   H261    1.000   .     S
N259   C262    1.476   .     S
N259   Co124   2.002   1_655 S
C260   H263    0.980   .     S
C260   H264    0.979   .     S
C260   H265    0.980   .     S
C262   H266    0.980   .     S
C262   H267    0.979   .     S
C262   H268    0.980   .     S
