data_PIWWAW_directopt
_audit_creation_date              2024-06-11
_audit_creation_method            'Materials Studio'
_symmetry_space_group_name_H-M    'P1'
_symmetry_Int_Tables_number       1
_symmetry_cell_setting            triclinic
loop_
_symmetry_equiv_pos_as_xyz
  x,y,z
_cell_length_a                    16.3087
_cell_length_b                    16.3087
_cell_length_c                    6.4947
_cell_angle_alpha                 90.0000
_cell_angle_beta                  90.0000
_cell_angle_gamma                 90.0000
loop_
_atom_site_label
_atom_site_type_symbol
_atom_site_fract_x
_atom_site_fract_y
_atom_site_fract_z
_atom_site_U_iso_or_equiv
_atom_site_adp_type
_atom_site_occupancy
N1     N     0.53117   0.32041   0.26637   0.00000  Uiso   1.00
C1     C     0.48418   0.20566   0.42491   0.00000  Uiso   1.00
C2     C     0.44901   0.36091   0.56004   0.00000  Uiso   1.00
O1     O     0.39056   0.35103   0.67359   0.00000  Uiso   1.00
C3     C     0.48415   0.29426   0.42477   0.00000  Uiso   1.00
O2     O     0.48045   0.44097   0.53692   0.00000  Uiso   1.00
H1     H     0.58398   0.28193   0.86103   0.00000  Uiso   1.00
O3     O     0.39060   0.14892   0.67383   0.00000  Uiso   1.00
C4     C     0.55824   0.24994   0.17346   0.00000  Uiso   1.00
C5     C     0.61418   0.25016   0.99181   0.00000  Uiso   1.00
H2     H     0.67168   0.28288   0.03170   0.00000  Uiso   1.00
N2     N     0.53122   0.17948   0.26660   0.00000  Uiso   1.00
H3     H     0.62920   0.18635   0.94534   0.00000  Uiso   1.00
C6     C     0.44906   0.13903   0.56032   0.00000  Uiso   1.00
O4     O     0.48050   0.05897   0.53729   0.00000  Uiso   1.00
H4     H     0.91610   0.28179   0.86103   0.00000  Uiso   1.00
N3     N     0.96888   0.32040   0.26643   0.00000  Uiso   1.00
H5     H     0.82836   0.28293   0.03163   0.00000  Uiso   1.00
C7     C     0.05104   0.36091   0.56006   0.00000  Uiso   1.00
O5     O     0.10949   0.35103   0.67362   0.00000  Uiso   1.00
C8     C     0.01592   0.29425   0.42478   0.00000  Uiso   1.00
N4     N     0.96881   0.17948   0.26662   0.00000  Uiso   1.00
C9     C     0.05100   0.13901   0.56027   0.00000  Uiso   1.00
O6     O     0.10947   0.14890   0.67376   0.00000  Uiso   1.00
C10    C     0.01587   0.20565   0.42492   0.00000  Uiso   1.00
O7     O     0.01956   0.05895   0.53717   0.00000  Uiso   1.00
O8     O     0.01961   0.44096   0.53690   0.00000  Uiso   1.00
C11    C     0.94178   0.24994   0.17353   0.00000  Uiso   1.00
C12    C     0.88584   0.25014   0.99186   0.00000  Uiso   1.00
H6     H     0.87077   0.18632   0.94558   0.00000  Uiso   1.00
N5     N     0.17954   0.53117   0.76647   0.00000  Uiso   1.00
N6     N     0.32046   0.53110   0.76636   0.00000  Uiso   1.00
C13    C     0.13908   0.44902   0.06016   0.00000  Uiso   1.00
O9     O     0.14895   0.39055   0.17365   0.00000  Uiso   1.00
C14    C     0.20571   0.48411   0.92479   0.00000  Uiso   1.00
C15    C     0.29431   0.48408   0.92473   0.00000  Uiso   1.00
H7     H     0.18644   0.62916   0.44528   0.00000  Uiso   1.00
H8     H     0.28195   0.58384   0.36092   0.00000  Uiso   1.00
H9     H     0.28302   0.67161   0.53145   0.00000  Uiso   1.00
O10    O     0.05902   0.48043   0.03696   0.00000  Uiso   1.00
C16    C     0.36096   0.44895   0.06000   0.00000  Uiso   1.00
O11    O     0.35107   0.39050   0.17353   0.00000  Uiso   1.00
O12    O     0.44101   0.48038   0.03687   0.00000  Uiso   1.00
C17    C     0.25001   0.55820   0.67340   0.00000  Uiso   1.00
C18    C     0.25025   0.61412   0.49167   0.00000  Uiso   1.00
C19    C     0.25002   0.94172   0.67355   0.00000  Uiso   1.00
C20    C     0.25025   0.88578   0.49187   0.00000  Uiso   1.00
N7     N     0.17955   0.96875   0.76661   0.00000  Uiso   1.00
O13    O     0.14895   0.10937   0.17380   0.00000  Uiso   1.00
C21    C     0.13906   0.05090   0.06032   0.00000  Uiso   1.00
O14    O     0.05901   0.01945   0.03724   0.00000  Uiso   1.00
C22    C     0.20570   0.01577   0.92498   0.00000  Uiso   1.00
N8     N     0.32047   0.96878   0.76655   0.00000  Uiso   1.00
O15    O     0.35105   0.10942   0.17375   0.00000  Uiso   1.00
C23    C     0.36094   0.05094   0.06026   0.00000  Uiso   1.00
O16    O     0.44099   0.01951   0.03720   0.00000  Uiso   1.00
C24    C     0.29430   0.01581   0.92491   0.00000  Uiso   1.00
H10    H     0.28204   0.91599   0.36121   0.00000  Uiso   1.00
H11    H     0.18645   0.87078   0.44529   0.00000  Uiso   1.00
H12    H     0.28295   0.82826   0.53173   0.00000  Uiso   1.00
C25    C     0.44174   0.74994   0.82653   0.00000  Uiso   1.00
C26    C     0.38579   0.75017   0.00818   0.00000  Uiso   1.00
N9     N     0.46878   0.67948   0.73343   0.00000  Uiso   1.00
O17    O     0.60940   0.64893   0.32619   0.00000  Uiso   1.00
C27    C     0.55092   0.63905   0.43968   0.00000  Uiso   1.00
O18    O     0.51948   0.55899   0.46274   0.00000  Uiso   1.00
C28    C     0.51582   0.70567   0.57511   0.00000  Uiso   1.00
N10    N     0.46881   0.82041   0.73361   0.00000  Uiso   1.00
O19    O     0.60944   0.85104   0.32647   0.00000  Uiso   1.00
C29    C     0.55098   0.86092   0.43997   0.00000  Uiso   1.00
O20    O     0.51955   0.94098   0.46308   0.00000  Uiso   1.00
C30    C     0.51584   0.79427   0.57524   0.00000  Uiso   1.00
H13    H     0.37082   0.68638   0.05473   0.00000  Uiso   1.00
H14    H     0.32827   0.78286   0.96828   0.00000  Uiso   1.00
H15    H     0.41598   0.78198   0.13889   0.00000  Uiso   1.00
C31    C     0.05823   0.74995   0.82642   0.00000  Uiso   1.00
C32    C     0.11413   0.75016   0.00813   0.00000  Uiso   1.00
N11    N     0.03114   0.82041   0.73355   0.00000  Uiso   1.00
O21    O     0.89049   0.85105   0.32640   0.00000  Uiso   1.00
C33    C     0.94897   0.86092   0.43990   0.00000  Uiso   1.00
O22    O     0.98041   0.94097   0.46307   0.00000  Uiso   1.00
C34    C     0.98409   0.79426   0.57519   0.00000  Uiso   1.00
H16    H     0.17157   0.78307   0.96854   0.00000  Uiso   1.00
H17    H     0.12929   0.68636   0.05428   0.00000  Uiso   1.00
H18    H     0.08381   0.78171   0.13901   0.00000  Uiso   1.00
N12    N     0.03120   0.67949   0.73332   0.00000  Uiso   1.00
O23    O     0.89054   0.64891   0.32623   0.00000  Uiso   1.00
C35    C     0.94903   0.63902   0.43967   0.00000  Uiso   1.00
O24    O     0.98045   0.55896   0.46278   0.00000  Uiso   1.00
C36    C     0.98415   0.70566   0.57502   0.00000  Uiso   1.00
C37    C     0.86093   0.94901   0.93987   0.00000  Uiso   1.00
O25    O     0.94099   0.98043   0.96302   0.00000  Uiso   1.00
C38    C     0.79429   0.98412   0.07520   0.00000  Uiso   1.00
H19    H     0.71813   0.08382   0.63918   0.00000  Uiso   1.00
H20    H     0.71691   0.17158   0.46861   0.00000  Uiso   1.00
H21    H     0.81356   0.12924   0.55460   0.00000  Uiso   1.00
C39    C     0.75000   0.05820   0.32662   0.00000  Uiso   1.00
C40    C     0.74976   0.11413   0.50832   0.00000  Uiso   1.00
N13    N     0.67955   0.03112   0.23371   0.00000  Uiso   1.00
O26    O     0.64893   0.89050   0.82646   0.00000  Uiso   1.00
C41    C     0.63904   0.94895   0.94001   0.00000  Uiso   1.00
O27    O     0.55899   0.98037   0.96314   0.00000  Uiso   1.00
C42    C     0.70569   0.98408   0.07534   0.00000  Uiso   1.00
N14    N     0.82046   0.03116   0.23353   0.00000  Uiso   1.00
O28    O     0.85104   0.89056   0.82634   0.00000  Uiso   1.00
N15    N     0.67954   0.46879   0.23344   0.00000  Uiso   1.00
O29    O     0.64894   0.60942   0.82628   0.00000  Uiso   1.00
C43    C     0.63905   0.55095   0.93975   0.00000  Uiso   1.00
O30    O     0.55899   0.51952   0.96280   0.00000  Uiso   1.00
C44    C     0.70570   0.51581   0.07507   0.00000  Uiso   1.00
H22    H     0.71798   0.41603   0.63882   0.00000  Uiso   1.00
H23    H     0.81357   0.37080   0.55468   0.00000  Uiso   1.00
H24    H     0.71706   0.32829   0.46831   0.00000  Uiso   1.00
C45    C     0.75000   0.44171   0.32643   0.00000  Uiso   1.00
C46    C     0.74977   0.38580   0.50816   0.00000  Uiso   1.00
N16    N     0.82047   0.46874   0.23335   0.00000  Uiso   1.00
O31    O     0.85107   0.60939   0.82624   0.00000  Uiso   1.00
C47    C     0.86095   0.55090   0.93968   0.00000  Uiso   1.00
O32    O     0.94101   0.51947   0.96276   0.00000  Uiso   1.00
C48    C     0.79430   0.51579   0.07503   0.00000  Uiso   1.00
Cd1    Cd    0.54192   0.45803   0.24985   0.00000  Uiso   1.00
Cd2    Cd    0.95807   0.04186   0.25012   0.00000  Uiso   1.00
Cd3    Cd    0.04193   0.54189   0.74987   0.00000  Uiso   1.00
Cd4    Cd    0.45808   0.95804   0.75015   0.00000  Uiso   1.00
Cd5    Cd    0.45806   0.54186   0.74986   0.00000  Uiso   1.00
Cd6    Cd    0.04193   0.95801   0.75012   0.00000  Uiso   1.00
Cd7    Cd    0.95811   0.45804   0.24986   0.00000  Uiso   1.00
Cd8    Cd    0.54193   0.04187   0.25016   0.00000  Uiso   1.00
Na1    Na    0.33031   0.24999   0.69321   0.00000  Uiso   1.00
Na2    Na    0.16972   0.24996   0.69319   0.00000  Uiso   1.00
Na3    Na    0.24999   0.33028   0.19316   0.00000  Uiso   1.00
Na4    Na    0.24999   0.16964   0.19325   0.00000  Uiso   1.00
Na5    Na    0.66966   0.74998   0.30679   0.00000  Uiso   1.00
Na6    Na    0.83031   0.74998   0.30678   0.00000  Uiso   1.00
Na7    Na    0.74999   0.83028   0.80685   0.00000  Uiso   1.00
Na8    Na    0.75001   0.66967   0.80678   0.00000  Uiso   1.00
loop_
_geom_bond_atom_site_label_1
_geom_bond_atom_site_label_2
_geom_bond_distance
_geom_bond_site_symmetry_2
_ccdc_geom_bond_type
N1     C3      1.352   .     A
N1     C4      1.371   .     A
N1     Cd1     2.254   .     S
C1     C3      1.445   .     A
C1     N2      1.352   .     A
C1     C6      1.511   .     S
C2     O1      1.216   .     D
C2     C3      1.511   .     S
C2     O2      1.411   .     S
O1     Na1     1.923   .     S
O2     Cd1     2.135   .     S
O2     Cd5     2.180   .     S
H1     C5      1.110   .     S
O3     C6      1.216   .     D
O3     Na1     1.923   .     S
C4     C5      1.491   1_554 S
C4     N2      1.371   .     A
C5     C4      1.491   1_556 S
C5     H2      1.110   1_556 S
C5     H3      1.111   .     S
H2     C5      1.110   1_554 S
N2     Cd8     2.253   .     S
C6     O4      1.411   .     S
O4     Cd4     2.180   1_545 S
O4     Cd8     2.135   .     S
H4     C12     1.110   .     S
N3     C8      1.352   1_655 A
N3     C11     1.371   .     A
N3     Cd7     2.254   .     S
H5     C12     1.110   1_554 S
C7     O5      1.216   .     D
C7     C8      1.511   .     S
C7     O8      1.411   .     S
O5     Na2     1.923   .     S
C8     N3      1.352   1_455 A
C8     C10     1.445   .     A
N4     C10     1.352   1_655 A
N4     C11     1.371   .     A
N4     Cd2     2.254   .     S
C9     O6      1.216   .     D
C9     C10     1.511   .     S
C9     O7      1.411   .     S
O6     Na2     1.923   .     S
C10    N4      1.352   1_455 A
O7     Cd2     2.135   1_455 S
O7     Cd6     2.181   1_545 S
O8     Cd3     2.181   .     S
O8     Cd7     2.135   1_455 S
C11    C12     1.491   1_554 S
C12    H5      1.110   1_556 S
C12    C11     1.491   1_556 S
C12    H6      1.111   .     S
N5     C14     1.352   .     A
N5     C17     1.371   .     A
N5     Cd3     2.254   .     S
N6     C15     1.352   .     A
N6     C17     1.371   .     A
N6     Cd5     2.253   .     S
C13    O9      1.216   .     D
C13    C14     1.510   1_554 S
C13    O10     1.411   .     S
O9     Na3     1.923   .     S
C14    C13     1.510   1_556 S
C14    C15     1.445   .     A
C15    C16     1.511   1_556 S
H7     C18     1.111   .     S
H8     C18     1.110   .     S
H9     C18     1.110   .     S
O10    Cd3     2.135   1_554 S
O10    Cd7     2.180   1_455 S
C16    C15     1.511   1_554 S
C16    O11     1.216   .     D
C16    O12     1.411   .     S
O11    Na3     1.923   .     S
O12    Cd1     2.180   .     S
O12    Cd5     2.135   1_554 S
C17    C18     1.492   .     S
C19    C20     1.491   .     S
C19    N7      1.371   .     A
C19    N8      1.371   .     A
C20    H10     1.110   .     S
C20    H11     1.111   .     S
C20    H12     1.110   .     S
N7     C22     1.352   1_565 A
N7     Cd6     2.254   .     S
O13    C21     1.216   .     D
O13    Na4     1.923   .     S
C21    O14     1.411   .     S
C21    C22     1.511   1_554 S
O14    Cd2     2.181   1_455 S
O14    Cd6     2.135   1_544 S
C22    C21     1.511   1_556 S
C22    N7      1.352   1_545 A
C22    C24     1.445   .     A
N8     C24     1.352   1_565 A
N8     Cd4     2.254   .     S
O15    C23     1.216   .     D
O15    Na4     1.923   .     S
C23    O16     1.411   .     S
C23    C24     1.511   1_554 S
O16    Cd4     2.135   1_544 S
O16    Cd8     2.181   .     S
C24    C23     1.511   1_556 S
C24    N8      1.352   1_545 A
C25    C26     1.491   1_556 S
C25    N9      1.371   .     A
C25    N10     1.371   .     A
C26    C25     1.491   1_554 S
C26    H13     1.111   .     S
C26    H14     1.110   1_554 S
C26    H15     1.110   .     S
N9     C28     1.352   .     A
N9     Cd5     2.254   .     S
O17    C27     1.216   .     D
O17    Na5     1.923   .     S
C27    O18     1.411   .     S
C27    C28     1.511   .     S
O18    Cd1     2.181   .     S
O18    Cd5     2.135   .     S
C28    C30     1.445   .     A
N10    C30     1.352   .     A
N10    Cd4     2.254   .     S
O19    C29     1.216   .     D
O19    Na5     1.923   .     S
C29    O20     1.411   .     S
C29    C30     1.511   .     S
O20    Cd4     2.135   .     S
O20    Cd8     2.180   1_565 S
H14    C26     1.110   1_556 S
C31    C32     1.491   1_556 S
C31    N11     1.371   .     A
C31    N12     1.371   .     A
C32    C31     1.491   1_554 S
C32    H16     1.110   1_554 S
C32    H17     1.111   .     S
C32    H18     1.110   .     S
N11    C34     1.352   1_455 A
N11    Cd6     2.254   .     S
O21    C33     1.216   .     D
O21    Na6     1.923   .     S
C33    O22     1.411   .     S
C33    C34     1.511   .     S
O22    Cd2     2.180   1_565 S
O22    Cd6     2.135   1_655 S
C34    N11     1.352   1_655 A
C34    C36     1.445   .     A
H16    C32     1.110   1_556 S
N12    C36     1.352   1_455 A
N12    Cd3     2.254   .     S
O23    C35     1.216   .     D
O23    Na6     1.923   .     S
C35    O24     1.411   .     S
C35    C36     1.511   .     S
O24    Cd3     2.135   1_655 S
O24    Cd7     2.180   .     S
C36    N12     1.352   1_655 A
C37    O25     1.411   .     S
C37    C38     1.511   1_556 S
C37    O28     1.216   .     D
O25    Cd2     2.135   1_566 S
O25    Cd6     2.181   1_655 S
C38    C37     1.511   1_554 S
C38    C42     1.445   .     A
C38    N14     1.352   1_565 A
H19    C40     1.110   .     S
H20    C40     1.110   .     S
H21    C40     1.111   .     S
C39    C40     1.492   .     S
C39    N13     1.371   .     A
C39    N14     1.371   .     A
N13    C42     1.352   1_545 A
N13    Cd8     2.254   .     S
O26    C41     1.216   .     D
O26    Na7     1.923   .     S
C41    O27     1.411   .     S
C41    C42     1.511   1_556 S
O27    Cd4     2.180   .     S
O27    Cd8     2.135   1_566 S
C42    N13     1.352   1_565 A
C42    C41     1.511   1_554 S
N14    C38     1.352   1_545 A
N14    Cd2     2.254   .     S
O28    Na7     1.923   .     S
N15    C44     1.352   .     A
N15    C45     1.371   .     A
N15    Cd1     2.254   .     S
O29    C43     1.216   .     D
O29    Na8     1.923   .     S
C43    O30     1.411   .     S
C43    C44     1.511   1_556 S
O30    Cd1     2.135   1_556 S
O30    Cd5     2.181   .     S
C44    C43     1.511   1_554 S
C44    C48     1.445   .     A
H22    C46     1.110   .     S
H23    C46     1.111   .     S
H24    C46     1.110   .     S
C45    C46     1.492   .     S
C45    N16     1.371   .     A
N16    C48     1.352   .     A
N16    Cd7     2.254   .     S
O31    C47     1.216   .     D
O31    Na8     1.923   .     S
C47    O32     1.411   .     S
C47    C48     1.511   1_556 S
O32    Cd3     2.180   1_655 S
O32    Cd7     2.135   1_556 S
C48    C47     1.511   1_554 S
Cd1    O30     2.135   1_554 S
Cd2    O7      2.135   1_655 S
Cd2    O14     2.181   1_655 S
Cd2    O22     2.180   1_545 S
Cd2    O25     2.135   1_544 S
Cd3    O10     2.135   1_556 S
Cd3    O32     2.180   1_455 S
Cd3    O24     2.135   1_455 S
Cd4    O16     2.135   1_566 S
Cd4    O4      2.180   1_565 S
Cd5    O12     2.135   1_556 S
Cd6    O14     2.135   1_566 S
Cd6    O25     2.181   1_455 S
Cd6    O7      2.181   1_565 S
Cd6    O22     2.135   1_455 S
Cd7    O8      2.135   1_655 S
Cd7    O10     2.180   1_655 S
Cd7    O32     2.135   1_554 S
Cd8    O20     2.180   1_545 S
Cd8    O27     2.135   1_544 S
Na1    Na2     2.619   .     S
Na1    Na3     3.738   1_556 S
Na1    Na4     3.739   1_556 S
Na2    Na3     3.738   1_556 S
Na2    Na4     3.739   1_556 S
Na3    Na1     3.738   1_554 S
Na3    Na2     3.738   1_554 S
Na3    Na4     2.620   .     S
Na4    Na1     3.739   1_554 S
Na4    Na2     3.739   1_554 S
Na5    Na6     2.620   .     S
Na5    Na7     3.738   1_554 S
Na5    Na8     3.739   1_554 S
Na6    Na7     3.738   1_554 S
Na6    Na8     3.738   1_554 S
Na7    Na6     3.738   1_556 S
Na7    Na5     3.738   1_556 S
Na7    Na8     2.619   .     S
Na8    Na6     3.738   1_556 S
Na8    Na5     3.739   1_556 S
