data_QALGOD_FSR
_audit_creation_date              2024-06-11
_audit_creation_method            'Materials Studio'
_symmetry_space_group_name_H-M    'P1'
_symmetry_Int_Tables_number       1
_symmetry_cell_setting            triclinic
loop_
_symmetry_equiv_pos_as_xyz
  x,y,z
_cell_length_a                    14.0950
_cell_length_b                    15.1450
_cell_length_c                    19.2850
_cell_angle_alpha                 91.0220
_cell_angle_beta                  102.2430
_cell_angle_gamma                 97.7480
loop_
_atom_site_label
_atom_site_type_symbol
_atom_site_fract_x
_atom_site_fract_y
_atom_site_fract_z
_atom_site_U_iso_or_equiv
_atom_site_adp_type
_atom_site_occupancy
Co1    Co    0.42008   0.56601   0.21488   0.00000  Uiso   1.00
O2     O     0.48123   0.68065   0.27648   0.00000  Uiso   1.00
O3     O     0.28105   0.61133   0.20463   0.00000  Uiso   1.00
O4     O     0.56018   0.52883   0.23028   0.00000  Uiso   1.00
O5     O     0.35781   0.45296   0.14998   0.00000  Uiso   1.00
O6     O     0.38565   0.49609   0.30118   0.00000  Uiso   1.00
N7     N     0.68724   0.89190   0.26481   0.00000  Uiso   1.00
N8     N     0.18254   0.85062   0.22196   0.00000  Uiso   1.00
N9     N     0.66838   0.29163   0.24833   0.00000  Uiso   1.00
N10    N     0.14736   0.24743   0.17104   0.00000  Uiso   1.00
N11    N     0.24660   0.56210   0.45450   0.00000  Uiso   1.00
C12    C     0.54840   0.74405   0.27445   0.00000  Uiso   1.00
C13    C     0.55140   0.82840   0.30840   0.00000  Uiso   1.00
H14    H     0.50555   0.83558   0.33562   0.00000  Uiso   1.00
C15    C     0.61860   0.89880   0.30250   0.00000  Uiso   1.00
H16    H     0.61718   0.95323   0.32508   0.00000  Uiso   1.00
C17    C     0.69040   0.81184   0.23363   0.00000  Uiso   1.00
H18    H     0.73911   0.80683   0.20853   0.00000  Uiso   1.00
C19    C     0.62520   0.73878   0.23768   0.00000  Uiso   1.00
H20    H     0.63057   0.68472   0.21625   0.00000  Uiso   1.00
C21    C     0.75180   0.97408   0.25283   0.00000  Uiso   1.00
H22    H     0.75851   1.01694   0.29216   0.00000  Uiso   1.00
H23    H     0.72053   1.00030   0.20993   0.00000  Uiso   1.00
C24    C     0.85330   0.95736   0.24585   0.00000  Uiso   1.00
C25    C     0.87660   0.95067   0.17912   0.00000  Uiso   1.00
C26    C     0.80470   0.95040   0.11400   0.00000  Uiso   1.00
H27    H     0.74055   0.95694   0.11578   0.00000  Uiso   1.00
C28    C     0.82860   0.94090   0.05010   0.00000  Uiso   1.00
H29    H     0.78089   0.93976   0.00846   0.00000  Uiso   1.00
C30    C     0.92550   0.93280   0.04710   0.00000  Uiso   1.00
H31    H     0.94138   0.92672   0.00304   0.00000  Uiso   1.00
C32    C     0.99570   0.93350   0.10590   0.00000  Uiso   1.00
H33    H     0.05935   0.92886   0.10166   0.00000  Uiso   1.00
C34    C     0.97550   0.94129   0.17480   0.00000  Uiso   1.00
C35    C     0.04740   0.93980   0.23720   0.00000  Uiso   1.00
C36    C     0.02170   0.93910   0.30380   0.00000  Uiso   1.00
C37    C     0.08860   0.92720   0.37000   0.00000  Uiso   1.00
H38    H     0.15404   0.92480   0.36962   0.00000  Uiso   1.00
C39    C     0.05990   0.91970   0.43200   0.00000  Uiso   1.00
H40    H     0.10487   0.90987   0.47298   0.00000  Uiso   1.00
C41    C     0.96310   0.92630   0.43580   0.00000  Uiso   1.00
H42    H     0.94381   0.92002   0.47884   0.00000  Uiso   1.00
C43    C     0.89720   0.94210   0.37640   0.00000  Uiso   1.00
H44    H     0.83415   0.94987   0.38013   0.00000  Uiso   1.00
C45    C     0.92250   0.94710   0.30783   0.00000  Uiso   1.00
C46    C     0.15500   0.94140   0.23310   0.00000  Uiso   1.00
H47    H     0.16801   0.97793   0.19447   0.00000  Uiso   1.00
H48    H     0.19637   0.96926   0.27686   0.00000  Uiso   1.00
C49    C     0.26380   0.84580   0.19574   0.00000  Uiso   1.00
H50    H     0.29700   0.89777   0.18230   0.00000  Uiso   1.00
C51    C     0.29810   0.76740   0.18850   0.00000  Uiso   1.00
H52    H     0.35361   0.76695   0.16975   0.00000  Uiso   1.00
C53    C     0.25170   0.68660   0.20890   0.00000  Uiso   1.00
C54    C     0.16690   0.69570   0.23650   0.00000  Uiso   1.00
H55    H     0.13191   0.64528   0.25078   0.00000  Uiso   1.00
C56    C     0.13660   0.77580   0.24250   0.00000  Uiso   1.00
H57    H     0.08175   0.77900   0.26148   0.00000  Uiso   1.00
C58    C     0.59390   0.45510   0.23925   0.00000  Uiso   1.00
C59    C     0.69090   0.44690   0.23360   0.00000  Uiso   1.00
H60    H     0.73247   0.49764   0.22677   0.00000  Uiso   1.00
C61    C     0.72490   0.36730   0.23790   0.00000  Uiso   1.00
H62    H     0.78889   0.36476   0.23349   0.00000  Uiso   1.00
C63    C     0.57720   0.29690   0.25815   0.00000  Uiso   1.00
H64    H     0.53904   0.24557   0.26795   0.00000  Uiso   1.00
C65    C     0.53950   0.37530   0.25413   0.00000  Uiso   1.00
H66    H     0.47646   0.37622   0.26135   0.00000  Uiso   1.00
C67    C     0.70010   0.20130   0.24990   0.00000  Uiso   1.00
H68    H     0.65167   0.16116   0.21640   0.00000  Uiso   1.00
H69    H     0.70222   0.17886   0.29689   0.00000  Uiso   1.00
C70    C     0.79950   0.20058   0.23190   0.00000  Uiso   1.00
C71    C     0.80720   0.18931   0.16130   0.00000  Uiso   1.00
C72    C     0.72350   0.18090   0.10230   0.00000  Uiso   1.00
H73    H     0.66137   0.18163   0.11146   0.00000  Uiso   1.00
C74    C     0.73260   0.17190   0.03470   0.00000  Uiso   1.00
H75    H     0.67719   0.16641  -0.00203   0.00000  Uiso   1.00
C76    C     0.82590   0.17090   0.01910   0.00000  Uiso   1.00
H77    H     0.83175   0.16606  -0.02791   0.00000  Uiso   1.00
C78    C     0.90650   0.17690   0.07210   0.00000  Uiso   1.00
H79    H     0.96739   0.17628   0.06078   0.00000  Uiso   1.00
C80    C     0.90120   0.18428   0.14473   0.00000  Uiso   1.00
C81    C     0.98480   0.18675   0.20056   0.00000  Uiso   1.00
C82    C     0.97740   0.20220   0.27046   0.00000  Uiso   1.00
C83    C     0.06100   0.21150   0.32900   0.00000  Uiso   1.00
H84    H     0.12220   0.20504   0.32047   0.00000  Uiso   1.00
C85    C     0.05260   0.22980   0.39720   0.00000  Uiso   1.00
H86    H     0.10789   0.23726   0.43416   0.00000  Uiso   1.00
C87    C     0.96070   0.23700   0.41070   0.00000  Uiso   1.00
H88    H     0.95544   0.24843   0.45719   0.00000  Uiso   1.00
C89    C     0.87970   0.22810   0.35880   0.00000  Uiso   1.00
H90    H     0.81957   0.23320   0.37000   0.00000  Uiso   1.00
C91    C     0.88410   0.21090   0.28700   0.00000  Uiso   1.00
C92    C     0.08110   0.16810   0.18550   0.00000  Uiso   1.00
H93    H     0.11557   0.13934   0.22592   0.00000  Uiso   1.00
H94    H     0.06748   0.12612   0.14485   0.00000  Uiso   1.00
C95    C     0.13780   0.33230   0.18700   0.00000  Uiso   1.00
H96    H     0.08255   0.34328   0.20305   0.00000  Uiso   1.00
C97    C     0.20560   0.40200   0.18060   0.00000  Uiso   1.00
H98    H     0.19617   0.45938   0.19276   0.00000  Uiso   1.00
C99    C     0.29060   0.38950   0.15560   0.00000  Uiso   1.00
C100   C     0.29730   0.29980   0.13810   0.00000  Uiso   1.00
H101   H     0.35043   0.28676   0.12025   0.00000  Uiso   1.00
C102   C     0.22840   0.23310   0.14690   0.00000  Uiso   1.00
H103   H     0.23637   0.17479   0.13611   0.00000  Uiso   1.00
C104   C     0.34050   0.51700   0.34670   0.00000  Uiso   1.00
C105   C     0.34840   0.60600   0.37670   0.00000  Uiso   1.00
H106   H     0.38611   0.65189   0.35918   0.00000  Uiso   1.00
C107   C     0.30490   0.62540   0.42780   0.00000  Uiso   1.00
H108   H     0.31429   0.68392   0.44607   0.00000  Uiso   1.00
C109   C     0.23410   0.47690   0.42790   0.00000  Uiso   1.00
H110   H     0.19438   0.43314   0.44590   0.00000  Uiso   1.00
C111   C     0.27710   0.45480   0.37700   0.00000  Uiso   1.00
H112   H     0.26550   0.39564   0.35995   0.00000  Uiso   1.00
C113   C     0.20260   0.58670   0.51640   0.00000  Uiso   1.00
H114   H     0.24196   0.56948   0.56030   0.00000  Uiso   1.00
H115   H     0.20349   0.65082   0.51950   0.00000  Uiso   1.00
C116   C     0.09890   0.54100   0.50730   0.00000  Uiso   1.00
C117   C     0.07830   0.46490   0.54660   0.00000  Uiso   1.00
C118   C     0.15420   0.42490   0.59110   0.00000  Uiso   1.00
H119   H     0.21929   0.45033   0.59630   0.00000  Uiso   1.00
C120   C     0.13200   0.35010   0.62570   0.00000  Uiso   1.00
H121   H     0.18252   0.32369   0.65262   0.00000  Uiso   1.00
C122   C     0.03500   0.31210   0.62160   0.00000  Uiso   1.00
H123   H     0.02145   0.26275   0.64767   0.00000  Uiso   1.00
C124   C     0.96030   0.34710   0.57960   0.00000  Uiso   1.00
H125   H     0.89598   0.32104   0.57707   0.00000  Uiso   1.00
C126   C     0.97900   0.42300   0.53930   0.00000  Uiso   1.00
O127   O     0.45366   0.62803   0.12186   0.00000  Uiso   1.00
N128   N     0.47660   0.61890   0.01105   0.00000  Uiso   1.00
C129   C     0.41780   0.61570   0.05740   0.00000  Uiso   1.00
C130   C     0.30940   0.59850   0.03070   0.00000  Uiso   1.00
H131   H     0.27773   0.59605   0.07014   0.00000  Uiso   1.00
H132   H     0.29198   0.54266   0.00358   0.00000  Uiso   1.00
H133   H     0.28878   0.64564   0.00101   0.00000  Uiso   1.00
C134   C     0.44120   0.61550  -0.06670   0.00000  Uiso   1.00
H135   H     0.37184   0.59595  -0.07839   0.00000  Uiso   1.00
H136   H     0.47409   0.57453  -0.08818   0.00000  Uiso   1.00
H137   H     0.45478   0.67384  -0.08407   0.00000  Uiso   1.00
C138   C     0.58330   0.63050   0.03770   0.00000  Uiso   1.00
H139   H     0.59795   0.61158   0.08558   0.00000  Uiso   1.00
H140   H     0.60961   0.69223   0.03677   0.00000  Uiso   1.00
H141   H     0.61226   0.59524   0.00818   0.00000  Uiso   1.00
Co142  Co    0.57992   0.43399   0.78512   0.00000  Uiso   1.00
O143   O     0.51877   0.31935   0.72352   0.00000  Uiso   1.00
O144   O     0.71895   0.38867   0.79537   0.00000  Uiso   1.00
O145   O     0.43982   0.47117   0.76972   0.00000  Uiso   1.00
O146   O     0.64219   0.54704   0.85002   0.00000  Uiso   1.00
O147   O     0.61435   0.50391   0.69882   0.00000  Uiso   1.00
N148   N     0.31276   0.10810   0.73519   0.00000  Uiso   1.00
N149   N     0.81746   0.14938   0.77804   0.00000  Uiso   1.00
N150   N     0.33162   0.70837   0.75167   0.00000  Uiso   1.00
N151   N     0.85264   0.75257   0.82896   0.00000  Uiso   1.00
N152   N     0.75340   0.43790   0.54550   0.00000  Uiso   1.00
C153   C     0.45160   0.25595   0.72555   0.00000  Uiso   1.00
C154   C     0.44860   0.17160   0.69160   0.00000  Uiso   1.00
H155   H     0.49445   0.16442   0.66438   0.00000  Uiso   1.00
C156   C     0.38140   0.10120   0.69750   0.00000  Uiso   1.00
H157   H     0.38282   0.04677   0.67492   0.00000  Uiso   1.00
C158   C     0.30960   0.18816   0.76637   0.00000  Uiso   1.00
H159   H     0.26089   0.19317   0.79147   0.00000  Uiso   1.00
C160   C     0.37480   0.26122   0.76232   0.00000  Uiso   1.00
H161   H     0.36944   0.31528   0.78375   0.00000  Uiso   1.00
C162   C     0.24820   0.02592   0.74717   0.00000  Uiso   1.00
H163   H     0.24149  -0.01694   0.70784   0.00000  Uiso   1.00
H164   H     0.27947  -0.00030   0.79007   0.00000  Uiso   1.00
C165   C     0.14670   0.04264   0.75415   0.00000  Uiso   1.00
C166   C     0.12340   0.04933   0.82088   0.00000  Uiso   1.00
C167   C     0.19530   0.04960   0.88600   0.00000  Uiso   1.00
H168   H     0.25945   0.04306   0.88422   0.00000  Uiso   1.00
C169   C     0.17140   0.05910   0.94990   0.00000  Uiso   1.00
H170   H     0.21911   0.06025   0.99154   0.00000  Uiso   1.00
C171   C     0.07450   0.06720   0.95290   0.00000  Uiso   1.00
H172   H     0.05862   0.07328   0.99696   0.00000  Uiso   1.00
C173   C     0.00430   0.06650   0.89410   0.00000  Uiso   1.00
H174   H     0.94065   0.07114   0.89834   0.00000  Uiso   1.00
C175   C     0.02450   0.05871   0.82520   0.00000  Uiso   1.00
C176   C     0.95260   0.06020   0.76280   0.00000  Uiso   1.00
C177   C     0.97830   0.06090   0.69620   0.00000  Uiso   1.00
C178   C     0.91140   0.07280   0.63000   0.00000  Uiso   1.00
H179   H     0.84596   0.07520   0.63038   0.00000  Uiso   1.00
C180   C     0.94010   0.08030   0.56800   0.00000  Uiso   1.00
H181   H     0.89513   0.09013   0.52702   0.00000  Uiso   1.00
C182   C     0.03690   0.07370   0.56420   0.00000  Uiso   1.00
H183   H     0.05619   0.07999   0.52116   0.00000  Uiso   1.00
C184   C     0.10280   0.05790   0.62360   0.00000  Uiso   1.00
H185   H     0.16585   0.05013   0.61987   0.00000  Uiso   1.00
C186   C     0.07750   0.05290   0.69217   0.00000  Uiso   1.00
C187   C     0.84500   0.05860   0.76690   0.00000  Uiso   1.00
H188   H     0.83199   0.02207   0.80553   0.00000  Uiso   1.00
H189   H     0.80363   0.03074   0.72314   0.00000  Uiso   1.00
C190   C     0.73620   0.15420   0.80426   0.00000  Uiso   1.00
H191   H     0.70300   0.10223   0.81770   0.00000  Uiso   1.00
C192   C     0.70190   0.23260   0.81150   0.00000  Uiso   1.00
H193   H     0.64639   0.23305   0.83025   0.00000  Uiso   1.00
C194   C     0.74830   0.31340   0.79110   0.00000  Uiso   1.00
C195   C     0.83310   0.30430   0.76350   0.00000  Uiso   1.00
H196   H     0.86809   0.35472   0.74922   0.00000  Uiso   1.00
C197   C     0.86340   0.22420   0.75750   0.00000  Uiso   1.00
H198   H     0.91825   0.22100   0.73852   0.00000  Uiso   1.00
C199   C     0.40610   0.54490   0.76075   0.00000  Uiso   1.00
C200   C     0.30910   0.55310   0.76640   0.00000  Uiso   1.00
H201   H     0.26753   0.50236   0.77323   0.00000  Uiso   1.00
C202   C     0.27510   0.63270   0.76210   0.00000  Uiso   1.00
H203   H     0.21111   0.63524   0.76651   0.00000  Uiso   1.00
C204   C     0.42280   0.70310   0.74185   0.00000  Uiso   1.00
H205   H     0.46096   0.75443   0.73206   0.00000  Uiso   1.00
C206   C     0.46050   0.62470   0.74587   0.00000  Uiso   1.00
H207   H     0.52354   0.62378   0.73865   0.00000  Uiso   1.00
C208   C     0.29990   0.79870   0.75010   0.00000  Uiso   1.00
H209   H     0.34834   0.83884   0.78361   0.00000  Uiso   1.00
H210   H     0.29778   0.82114   0.70311   0.00000  Uiso   1.00
C211   C     0.20050   0.79942   0.76810   0.00000  Uiso   1.00
C212   C     0.19280   0.81069   0.83870   0.00000  Uiso   1.00
C213   C     0.27650   0.81910   0.89770   0.00000  Uiso   1.00
H214   H     0.33863   0.81837   0.88854   0.00000  Uiso   1.00
C215   C     0.26740   0.82810   0.96530   0.00000  Uiso   1.00
H216   H     0.32281   0.83359   1.00203   0.00000  Uiso   1.00
C217   C     0.17410   0.82910   0.98090   0.00000  Uiso   1.00
H218   H     0.16825   0.83394   1.02791   0.00000  Uiso   1.00
C219   C     0.09350   0.82310   0.92790   0.00000  Uiso   1.00
H220   H     0.03262   0.82372   0.93922   0.00000  Uiso   1.00
C221   C     0.09880   0.81572   0.85527   0.00000  Uiso   1.00
C222   C     0.01520   0.81325   0.79944   0.00000  Uiso   1.00
C223   C     0.02260   0.79780   0.72954   0.00000  Uiso   1.00
C224   C     0.93900   0.78850   0.67100   0.00000  Uiso   1.00
H225   H     0.87780   0.79496   0.67953   0.00000  Uiso   1.00
C226   C     0.94740   0.77020   0.60280   0.00000  Uiso   1.00
H227   H     0.89211   0.76274   0.56584   0.00000  Uiso   1.00
C228   C     0.03930   0.76300   0.58930   0.00000  Uiso   1.00
H229   H     0.04456   0.75157   0.54281   0.00000  Uiso   1.00
C230   C     0.12030   0.77190   0.64120   0.00000  Uiso   1.00
H231   H     0.18043   0.76680   0.63000   0.00000  Uiso   1.00
C232   C     0.11590   0.78910   0.71300   0.00000  Uiso   1.00
C233   C     0.91890   0.83190   0.81450   0.00000  Uiso   1.00
H234   H     0.88443   0.86066   0.77408   0.00000  Uiso   1.00
H235   H     0.93252   0.87388   0.85515   0.00000  Uiso   1.00
C236   C     0.86220   0.66770   0.81300   0.00000  Uiso   1.00
H237   H     0.91745   0.65672   0.79695   0.00000  Uiso   1.00
C238   C     0.79440   0.59800   0.81940   0.00000  Uiso   1.00
H239   H     0.80383   0.54062   0.80724   0.00000  Uiso   1.00
C240   C     0.70940   0.61050   0.84440   0.00000  Uiso   1.00
C241   C     0.70270   0.70020   0.86190   0.00000  Uiso   1.00
H242   H     0.64957   0.71324   0.87975   0.00000  Uiso   1.00
C243   C     0.77160   0.76690   0.85310   0.00000  Uiso   1.00
H244   H     0.76363   0.82521   0.86389   0.00000  Uiso   1.00
C245   C     0.65950   0.48300   0.65330   0.00000  Uiso   1.00
C246   C     0.65160   0.39400   0.62330   0.00000  Uiso   1.00
H247   H     0.61389   0.34811   0.64082   0.00000  Uiso   1.00
C248   C     0.69510   0.37460   0.57220   0.00000  Uiso   1.00
H249   H     0.68571   0.31608   0.55393   0.00000  Uiso   1.00
C250   C     0.76590   0.52310   0.57210   0.00000  Uiso   1.00
H251   H     0.80562   0.56686   0.55411   0.00000  Uiso   1.00
C252   C     0.72290   0.54520   0.62300   0.00000  Uiso   1.00
H253   H     0.73450   0.60436   0.64005   0.00000  Uiso   1.00
C254   C     0.79740   0.41330   0.48360   0.00000  Uiso   1.00
H255   H     0.75804   0.43052   0.43970   0.00000  Uiso   1.00
H256   H     0.79651   0.34918   0.48050   0.00000  Uiso   1.00
C257   C     0.90110   0.45900   0.49270   0.00000  Uiso   1.00
C258   C     0.92170   0.53510   0.45340   0.00000  Uiso   1.00
C259   C     0.84580   0.57510   0.40890   0.00000  Uiso   1.00
H260   H     0.78071   0.54967   0.40370   0.00000  Uiso   1.00
C261   C     0.86800   0.64990   0.37430   0.00000  Uiso   1.00
H262   H     0.81748   0.67631   0.34738   0.00000  Uiso   1.00
C263   C     0.96500   0.68790   0.37840   0.00000  Uiso   1.00
H264   H     0.97855   0.73725   0.35233   0.00000  Uiso   1.00
C265   C     0.03970   0.65290   0.42040   0.00000  Uiso   1.00
H266   H     0.10402   0.67896   0.42294   0.00000  Uiso   1.00
C267   C     0.02100   0.57700   0.46070   0.00000  Uiso   1.00
O268   O     0.54634   0.37197   0.87814   0.00000  Uiso   1.00
N269   N     0.52340   0.38110   0.98895   0.00000  Uiso   1.00
C270   C     0.58220   0.38430   0.94260   0.00000  Uiso   1.00
C271   C     0.69060   0.40150   0.96930   0.00000  Uiso   1.00
H272   H     0.72227   0.40395   0.92986   0.00000  Uiso   1.00
H273   H     0.70802   0.45734   0.99642   0.00000  Uiso   1.00
H274   H     0.71122   0.35436   0.99899   0.00000  Uiso   1.00
C275   C     0.55880   0.38450   1.06670   0.00000  Uiso   1.00
H276   H     0.62816   0.40405   1.07839   0.00000  Uiso   1.00
H277   H     0.52591   0.42547   1.08818   0.00000  Uiso   1.00
H278   H     0.54522   0.32616   1.08407   0.00000  Uiso   1.00
C279   C     0.41670   0.36950   0.96230   0.00000  Uiso   1.00
H280   H     0.40205   0.38842   0.91443   0.00000  Uiso   1.00
H281   H     0.39039   0.30777   0.96324   0.00000  Uiso   1.00
H282   H     0.38774   0.40476   0.99182   0.00000  Uiso   1.00
loop_
_geom_bond_atom_site_label_1
_geom_bond_atom_site_label_2
_geom_bond_distance
_geom_bond_site_symmetry_2
_ccdc_geom_bond_type
Co1    O2      2.063   .     S
Co1    O4      2.088   .     S
Co1    O6      2.096   .     S
Co1    O127    2.151   .     S
Co1    O3      2.134   .     S
Co1    O5      2.079   .     S
O2     C12     1.262   .     S
O3     C53     1.271   .     S
O4     C58     1.272   .     S
O5     C99     1.279   .     S
O6     C104    1.248   .     S
N7     C15     1.341   .     S
N7     C17     1.354   .     S
N7     C21     1.491   .     S
N8     C46     1.502   .     S
N8     C49     1.356   .     S
N8     C56     1.337   .     S
N9     C61     1.349   .     S
N9     C63     1.351   .     S
N9     C67     1.494   .     S
N10    C92     1.488   .     S
N10    C95     1.347   .     S
N10    C102    1.363   .     S
N11    C107    1.358   .     S
N11    C109    1.355   .     S
N11    C113    1.519   .     S
C12    C13     1.416   .     S
C12    C19     1.424   .     S
C13    H14     0.931   .     S
C13    C15     1.351   .     S
C15    H16     0.930   .     S
C17    H18     0.930   .     S
C17    C19     1.354   .     S
C19    H20     0.930   .     S
C21    H22     0.970   .     S
C21    H23     0.970   .     S
C21    C24     1.519   .     S
C24    C25     1.399   .     S
C24    C45     1.399   .     S
C25    C26     1.436   .     S
C25    C34     1.440   .     S
C26    H27     0.930   .     S
C26    C28     1.355   .     S
C28    H29     0.930   .     S
C28    C30     1.401   .     S
C30    H31     0.929   .     S
C30    C32     1.336   .     S
C32    H33     0.930   1_655 S
C32    C34     1.423   .     S
H33    C32     0.930   1_455 S
C34    C35     1.402   1_655 S
C35    C34     1.402   1_455 S
C35    C36     1.406   .     S
C35    C46     1.532   .     S
C36    C37     1.447   .     S
C36    C45     1.438   1_455 S
C37    H38     0.930   .     S
C37    C39     1.343   .     S
C39    H40     0.930   .     S
C39    C41     1.399   1_455 S
C41    C39     1.399   1_655 S
C41    H42     0.929   .     S
C41    C43     1.360   .     S
C43    H44     0.929   .     S
C43    C45     1.441   .     S
C45    C36     1.438   1_655 S
C46    H47     0.969   .     S
C46    H48     0.971   .     S
C49    H50     0.930   .     S
C49    C51     1.357   .     S
C51    H52     0.930   .     S
C51    C53     1.411   .     S
C53    C54     1.429   .     S
C54    H55     0.930   .     S
C54    C56     1.350   .     S
C56    H57     0.929   .     S
C58    C59     1.416   .     S
C58    C65     1.410   .     S
C59    H60     0.931   .     S
C59    C61     1.354   .     S
C61    H62     0.929   .     S
C63    H64     0.930   .     S
C63    C65     1.362   .     S
C65    H66     0.930   .     S
C67    H68     0.970   .     S
C67    H69     0.969   .     S
C67    C70     1.515   .     S
C70    C71     1.398   .     S
C70    C91     1.408   .     S
C71    C72     1.445   .     S
C71    C80     1.438   .     S
C72    H73     0.931   .     S
C72    C74     1.343   .     S
C74    H75     0.930   .     S
C74    C76     1.412   .     S
C76    H77     0.930   .     S
C76    C78     1.349   .     S
C78    H79     0.930   .     S
C78    C80     1.422   .     S
C80    C81     1.413   .     S
C81    C82     1.392   .     S
C81    C92     1.508   1_655 S
C82    C83     1.438   1_655 S
C82    C91     1.439   .     S
C83    C82     1.438   1_455 S
C83    H84     0.929   .     S
C83    C85     1.372   .     S
C85    H86     0.931   .     S
C85    C87     1.392   1_455 S
C87    C85     1.392   1_655 S
C87    H88     0.930   .     S
C87    C89     1.339   .     S
C89    H90     0.930   .     S
C89    C91     1.420   .     S
C92    C81     1.508   1_455 S
C92    H93     0.971   .     S
C92    H94     0.970   .     S
C95    H96     0.930   .     S
C95    C97     1.351   .     S
C97    H98     0.930   .     S
C97    C99     1.417   .     S
C99    C100    1.414   .     S
C100   H101    0.930   .     S
C100   C102    1.343   .     S
C102   H103    0.931   .     S
C104   C105    1.438   .     S
C104   C111    1.429   .     S
C105   H106    0.930   .     S
C105   C107    1.314   .     S
C107   H108    0.930   .     S
C109   H110    0.929   .     S
C109   C111    1.318   .     S
C111   H112    0.930   .     S
C113   H114    0.970   .     S
C113   H115    0.970   .     S
C113   C116    1.503   .     S
C116   C117    1.422   .     S
C116   C267    1.439   .     S
C117   C118    1.432   .     S
C117   C126    1.434   1_455 S
C118   H119    0.930   .     S
C118   C120    1.359   .     S
C120   H121    0.929   .     S
C120   C122    1.395   .     S
C122   H123    0.929   .     S
C122   C124    1.360   1_455 S
C124   C122    1.360   1_655 S
C124   H125    0.930   .     S
C124   C126    1.425   .     S
C126   C117    1.434   1_655 S
C126   C257    1.439   .     S
O127   C129    1.239   .     S
N128   C129    1.339   .     S
N128   C134    1.474   .     S
N128   C138    1.468   .     S
C129   C130    1.491   .     S
C130   H131    0.959   .     S
C130   H132    0.961   .     S
C130   H133    0.960   .     S
C134   H135    0.959   .     S
C134   H136    0.960   .     S
C134   H137    0.960   .     S
C138   H139    0.960   .     S
C138   H140    0.960   .     S
C138   H141    0.960   .     S
Co142  O143    2.063   .     S
Co142  O145    2.088   .     S
Co142  O147    2.096   .     S
Co142  O268    2.151   .     S
Co142  O144    2.134   .     S
Co142  O146    2.079   .     S
O143   C153    1.262   .     S
O144   C194    1.271   .     S
O145   C199    1.272   .     S
O146   C240    1.279   .     S
O147   C245    1.248   .     S
N148   C156    1.341   .     S
N148   C158    1.354   .     S
N148   C162    1.491   .     S
N149   C187    1.502   .     S
N149   C190    1.356   .     S
N149   C197    1.337   .     S
N150   C202    1.349   .     S
N150   C204    1.351   .     S
N150   C208    1.494   .     S
N151   C233    1.488   .     S
N151   C236    1.347   .     S
N151   C243    1.363   .     S
N152   C248    1.358   .     S
N152   C250    1.355   .     S
N152   C254    1.519   .     S
C153   C154    1.416   .     S
C153   C160    1.424   .     S
C154   H155    0.931   .     S
C154   C156    1.351   .     S
C156   H157    0.930   .     S
C158   H159    0.930   .     S
C158   C160    1.354   .     S
C160   H161    0.930   .     S
C162   H163    0.970   .     S
C162   H164    0.970   .     S
C162   C165    1.519   .     S
C165   C166    1.399   .     S
C165   C186    1.399   .     S
C166   C167    1.436   .     S
C166   C175    1.440   .     S
C167   H168    0.930   .     S
C167   C169    1.355   .     S
C169   H170    0.930   .     S
C169   C171    1.401   .     S
C171   H172    0.929   .     S
C171   C173    1.336   .     S
C173   H174    0.930   1_455 S
C173   C175    1.423   .     S
H174   C173    0.930   1_655 S
C175   C176    1.402   1_455 S
C176   C175    1.402   1_655 S
C176   C177    1.406   .     S
C176   C187    1.532   .     S
C177   C178    1.447   .     S
C177   C186    1.438   1_655 S
C178   H179    0.930   .     S
C178   C180    1.343   .     S
C180   H181    0.930   .     S
C180   C182    1.399   1_655 S
C182   C180    1.399   1_455 S
C182   H183    0.929   .     S
C182   C184    1.360   .     S
C184   H185    0.929   .     S
C184   C186    1.441   .     S
C186   C177    1.438   1_455 S
C187   H188    0.969   .     S
C187   H189    0.971   .     S
C190   H191    0.930   .     S
C190   C192    1.357   .     S
C192   H193    0.930   .     S
C192   C194    1.411   .     S
C194   C195    1.429   .     S
C195   H196    0.930   .     S
C195   C197    1.350   .     S
C197   H198    0.929   .     S
C199   C200    1.416   .     S
C199   C206    1.410   .     S
C200   H201    0.931   .     S
C200   C202    1.354   .     S
C202   H203    0.929   .     S
C204   H205    0.930   .     S
C204   C206    1.362   .     S
C206   H207    0.930   .     S
C208   H209    0.970   .     S
C208   H210    0.969   .     S
C208   C211    1.515   .     S
C211   C212    1.398   .     S
C211   C232    1.408   .     S
C212   C213    1.445   .     S
C212   C221    1.438   .     S
C213   H214    0.931   .     S
C213   C215    1.343   .     S
C215   H216    0.930   .     S
C215   C217    1.412   .     S
C217   H218    0.930   .     S
C217   C219    1.349   .     S
C219   H220    0.930   .     S
C219   C221    1.422   .     S
C221   C222    1.413   .     S
C222   C223    1.392   .     S
C222   C233    1.508   1_455 S
C223   C224    1.438   1_455 S
C223   C232    1.439   .     S
C224   C223    1.438   1_655 S
C224   H225    0.929   .     S
C224   C226    1.372   .     S
C226   H227    0.931   .     S
C226   C228    1.392   1_655 S
C228   C226    1.392   1_455 S
C228   H229    0.930   .     S
C228   C230    1.339   .     S
C230   H231    0.930   .     S
C230   C232    1.420   .     S
C233   C222    1.508   1_655 S
C233   H234    0.971   .     S
C233   H235    0.970   .     S
C236   H237    0.930   .     S
C236   C238    1.351   .     S
C238   H239    0.930   .     S
C238   C240    1.417   .     S
C240   C241    1.414   .     S
C241   H242    0.930   .     S
C241   C243    1.343   .     S
C243   H244    0.931   .     S
C245   C246    1.438   .     S
C245   C252    1.429   .     S
C246   H247    0.930   .     S
C246   C248    1.314   .     S
C248   H249    0.930   .     S
C250   H251    0.929   .     S
C250   C252    1.318   .     S
C252   H253    0.930   .     S
C254   H255    0.970   .     S
C254   H256    0.970   .     S
C254   C257    1.503   .     S
C257   C258    1.422   .     S
C258   C259    1.432   .     S
C258   C267    1.434   1_655 S
C259   H260    0.930   .     S
C259   C261    1.359   .     S
C261   H262    0.929   .     S
C261   C263    1.395   .     S
C263   H264    0.929   .     S
C263   C265    1.360   1_655 S
C265   C263    1.360   1_455 S
C265   H266    0.930   .     S
C265   C267    1.425   .     S
C267   C258    1.434   1_455 S
O268   C270    1.239   .     S
N269   C270    1.339   .     S
N269   C275    1.474   .     S
N269   C279    1.468   .     S
C270   C271    1.491   .     S
C271   H272    0.959   .     S
C271   H273    0.961   .     S
C271   H274    0.960   .     S
C275   H276    0.959   .     S
C275   H277    0.960   .     S
C275   H278    0.960   .     S
C279   H280    0.960   .     S
C279   H281    0.960   .     S
C279   H282    0.960   .     S
