data_QIXYEE_FSR
_audit_creation_date              2024-06-11
_audit_creation_method            'Materials Studio'
_symmetry_space_group_name_H-M    'P1'
_symmetry_Int_Tables_number       1
_symmetry_cell_setting            triclinic
loop_
_symmetry_equiv_pos_as_xyz
  x,y,z
_cell_length_a                    10.2225
_cell_length_b                    11.0737
_cell_length_c                    11.3556
_cell_angle_alpha                 91.3800
_cell_angle_beta                  111.0180
_cell_angle_gamma                 117.4580
loop_
_atom_site_label
_atom_site_type_symbol
_atom_site_fract_x
_atom_site_fract_y
_atom_site_fract_z
_atom_site_U_iso_or_equiv
_atom_site_adp_type
_atom_site_occupancy
C1     C     0.18730  -0.20170   0.88080   0.00000  Uiso   1.00
C2     C     0.26610  -0.06000   0.96350   0.00000  Uiso   1.00
C3     C     0.36500   0.06990   0.95130   0.00000  Uiso   1.00
C4     C     0.43400   0.11910   0.85570   0.00000  Uiso   1.00
C5     C     0.32940   0.08900   0.12910   0.00000  Uiso   1.00
C6     C     0.35250   0.15300   0.25580   0.00000  Uiso   1.00
C7     C     0.40400   0.10050   0.36210   0.00000  Uiso   1.00
H8     H     0.41890   0.02480   0.35150   0.00000  Uiso   1.00
C9     C     0.43330   0.16090   0.48420   0.00000  Uiso   1.00
H10    H     0.46580   0.12440   0.55470   0.00000  Uiso   1.00
C11    C     0.41430   0.27500   0.50130   0.00000  Uiso   1.00
H12    H     0.43510   0.31600   0.58320   0.00000  Uiso   1.00
C13    C     0.36410   0.32750   0.39560   0.00000  Uiso   1.00
H14    H     0.35270   0.40490   0.40730   0.00000  Uiso   1.00
C15    C     0.33040   0.26670   0.27190   0.00000  Uiso   1.00
C16    C     0.25720   0.31790   0.15880   0.00000  Uiso   1.00
C17    C    -0.00370  -0.05700   0.23240   0.00000  Uiso   1.00
H18    H    -0.01180  -0.02310   0.15750   0.00000  Uiso   1.00
C19    C    -0.01030   0.01110   0.33210   0.00000  Uiso   1.00
H20    H    -0.02280   0.08890   0.32320   0.00000  Uiso   1.00
C21    C     0.00160  -0.03650   0.44490   0.00000  Uiso   1.00
C22    C     0.01600  -0.15500   0.45010   0.00000  Uiso   1.00
H23    H     0.02050  -0.19300   0.52260   0.00000  Uiso   1.00
C24    C     0.02360  -0.21590   0.34780   0.00000  Uiso   1.00
H25    H     0.03600  -0.29390   0.35430   0.00000  Uiso   1.00
Mn26   Mn    0.04933  -0.25494   0.08194   0.00000  Uiso   1.00
N27    N     0.24410  -0.04700   0.07510   0.00000  Uiso   1.00
N28    N     0.40410   0.16210   0.05670   0.00000  Uiso   1.00
H29    H     0.46570   0.25140   0.07410   0.00000  Uiso   1.00
N30    N     0.01390  -0.16910   0.23920   0.00000  Uiso   1.00
O31    O     0.10590  -0.30340   0.91910   0.00000  Uiso   1.00
O32    O     0.20610  -0.21160   0.77840   0.00000  Uiso   1.00
O33    O     0.39570   0.02540   0.75920   0.00000  Uiso   1.00
H34    H     0.33300  -0.05300   0.76100   0.00000  Uiso   1.00
O35    O     0.52660   0.24320   0.87110   0.00000  Uiso   1.00
O36    O     0.13250   0.22640   0.06450   0.00000  Uiso   1.00
O37    O     0.32350   0.44650   0.16770   0.00000  Uiso   1.00
O38    O     0.22400  -0.30490   0.21090   0.00000  Uiso   1.00
H39    H     0.18330  -0.33750   0.26630   0.00000  Uiso   1.00
H40    H     0.30690  -0.26770   0.20950   0.00000  Uiso   1.00
O41    O    -0.14670  -0.46580   0.05590   0.00000  Uiso   1.00
H42    H    -0.21130  -0.46470   0.97550   0.00000  Uiso   1.00
H43    H    -0.10930  -0.52270   0.06800   0.00000  Uiso   1.00
C44    C    -0.18730   0.20170   0.11920   0.00000  Uiso   1.00
C45    C    -0.26610   0.06000   0.03650   0.00000  Uiso   1.00
C46    C    -0.36500  -0.06990   0.04870   0.00000  Uiso   1.00
C47    C    -0.43400  -0.11910   0.14430   0.00000  Uiso   1.00
C48    C    -0.32940  -0.08900   0.87090   0.00000  Uiso   1.00
C49    C    -0.35250  -0.15300   0.74420   0.00000  Uiso   1.00
C50    C    -0.40400  -0.10050   0.63790   0.00000  Uiso   1.00
H51    H    -0.41890  -0.02480   0.64850   0.00000  Uiso   1.00
C52    C    -0.43330  -0.16090   0.51580   0.00000  Uiso   1.00
H53    H    -0.46580  -0.12440   0.44530   0.00000  Uiso   1.00
C54    C    -0.41430  -0.27500   0.49870   0.00000  Uiso   1.00
H55    H    -0.43510  -0.31600   0.41680   0.00000  Uiso   1.00
C56    C    -0.36410  -0.32750   0.60440   0.00000  Uiso   1.00
H57    H    -0.35270  -0.40490   0.59270   0.00000  Uiso   1.00
C58    C    -0.33040  -0.26670   0.72810   0.00000  Uiso   1.00
C59    C    -0.25720  -0.31790   0.84120   0.00000  Uiso   1.00
C60    C     0.00370   0.05700   0.76760   0.00000  Uiso   1.00
H61    H     0.01180   0.02310   0.84250   0.00000  Uiso   1.00
C62    C     0.01030  -0.01110   0.66790   0.00000  Uiso   1.00
H63    H     0.02280  -0.08890   0.67680   0.00000  Uiso   1.00
C64    C    -0.00160   0.03650   0.55510   0.00000  Uiso   1.00
C65    C    -0.01600   0.15500   0.54990   0.00000  Uiso   1.00
H66    H    -0.02050   0.19300   0.47740   0.00000  Uiso   1.00
C67    C    -0.02360   0.21590   0.65220   0.00000  Uiso   1.00
H68    H    -0.03600   0.29390   0.64570   0.00000  Uiso   1.00
Mn69   Mn   -0.04933   0.25494   0.91806   0.00000  Uiso   1.00
N70    N    -0.24410   0.04700   0.92490   0.00000  Uiso   1.00
N71    N    -0.40410  -0.16210   0.94330   0.00000  Uiso   1.00
H72    H    -0.46570  -0.25140   0.92590   0.00000  Uiso   1.00
N73    N    -0.01390   0.16910   0.76080   0.00000  Uiso   1.00
O74    O    -0.10590   0.30340   0.08090   0.00000  Uiso   1.00
O75    O    -0.20610   0.21160   0.22160   0.00000  Uiso   1.00
O76    O    -0.39570  -0.02540   0.24080   0.00000  Uiso   1.00
H77    H    -0.33300   0.05300   0.23900   0.00000  Uiso   1.00
O78    O    -0.52660  -0.24320   0.12890   0.00000  Uiso   1.00
O79    O    -0.13250  -0.22640   0.93550   0.00000  Uiso   1.00
O80    O    -0.32350  -0.44650   0.83230   0.00000  Uiso   1.00
O81    O    -0.22400   0.30490   0.78910   0.00000  Uiso   1.00
H82    H    -0.18330   0.33750   0.73370   0.00000  Uiso   1.00
H83    H    -0.30690   0.26770   0.79050   0.00000  Uiso   1.00
O84    O     0.14670   0.46580   0.94410   0.00000  Uiso   1.00
H85    H     0.21130   0.46470   0.02450   0.00000  Uiso   1.00
H86    H     0.10930   0.52270   0.93200   0.00000  Uiso   1.00
loop_
_geom_bond_atom_site_label_1
_geom_bond_atom_site_label_2
_geom_bond_distance
_geom_bond_site_symmetry_2
_ccdc_geom_bond_type
C1     C2      1.488   .     S
C1     O31     1.253   .     S
C1     O32     1.255   .     S
C2     C3      1.371   .     S
C2     N27     1.379   1_556 S
C3     C4      1.482   .     S
C3     N28     1.362   1_556 S
C4     O33     1.301   .     S
C4     O35     1.219   .     S
C5     C6      1.477   .     S
C5     N27     1.329   .     S
C5     N28     1.352   .     S
C6     C7      1.390   .     S
C6     C15     1.397   .     S
C7     H8      0.931   .     S
C7     C9      1.390   .     S
C9     H10     0.929   .     S
C9     C11     1.383   .     S
C11    H12     0.930   .     S
C11    C13     1.382   .     S
C13    H14     0.929   .     S
C13    C15     1.392   .     S
C15    C16     1.506   .     S
C16    O36     1.255   .     S
C16    O37     1.246   .     S
C17    H18     0.930   .     S
C17    C19     1.384   .     S
C17    N30     1.334   .     S
C19    H20     0.930   .     S
C19    C21     1.383   .     S
C21    C22     1.387   .     S
C21    C64     1.492   .     S
C22    H23     0.930   .     S
C22    C24     1.373   .     S
C24    H25     0.930   .     S
C24    N30     1.338   .     S
Mn26   N27     2.272   .     S
Mn26   O38     2.171   .     S
Mn26   O41     2.187   .     S
Mn26   O79     2.161   1_554 S
Mn26   N30     2.219   .     S
Mn26   O31     2.247   1_554 S
N27    C2      1.379   1_554 S
N28    C3      1.362   1_554 S
N28    H29     0.861   .     S
O31    Mn26    2.247   1_556 S
O33    H34     0.814   .     S
O36    Mn69    2.161   1_554 S
O38    H39     0.871   .     S
O38    H40     0.759   .     S
O41    H42     0.919   1_554 S
O41    H43     0.866   .     S
H42    O41     0.919   1_556 S
C44    C45     1.488   .     S
C44    O74     1.253   .     S
C44    O75     1.255   .     S
C45    C46     1.371   .     S
C45    N70     1.379   1_554 S
C46    C47     1.482   .     S
C46    N71     1.362   1_554 S
C47    O76     1.301   .     S
C47    O78     1.219   .     S
C48    C49     1.477   .     S
C48    N70     1.329   .     S
C48    N71     1.352   .     S
C49    C50     1.390   .     S
C49    C58     1.397   .     S
C50    H51     0.931   .     S
C50    C52     1.390   .     S
C52    H53     0.929   .     S
C52    C54     1.383   .     S
C54    H55     0.930   .     S
C54    C56     1.382   .     S
C56    H57     0.929   .     S
C56    C58     1.392   .     S
C58    C59     1.506   .     S
C59    O79     1.255   .     S
C59    O80     1.246   .     S
C60    H61     0.930   .     S
C60    C62     1.384   .     S
C60    N73     1.334   .     S
C62    H63     0.930   .     S
C62    C64     1.383   .     S
C64    C65     1.387   .     S
C65    H66     0.930   .     S
C65    C67     1.373   .     S
C67    H68     0.930   .     S
C67    N73     1.338   .     S
Mn69   N70     2.272   .     S
Mn69   O81     2.171   .     S
Mn69   O84     2.187   .     S
Mn69   O36     2.161   1_556 S
Mn69   N73     2.219   .     S
Mn69   O74     2.247   1_556 S
N70    C45     1.379   1_556 S
N71    C46     1.362   1_556 S
N71    H72     0.861   .     S
O74    Mn69    2.247   1_554 S
O76    H77     0.814   .     S
O79    Mn26    2.161   1_556 S
O81    H82     0.871   .     S
O81    H83     0.759   .     S
O84    H85     0.919   1_556 S
O84    H86     0.866   .     S
H85    O84     0.919   1_554 S
