data_RAWFED_FSR
_audit_creation_date              2024-06-11
_audit_creation_method            'Materials Studio'
_symmetry_space_group_name_H-M    'P1'
_symmetry_Int_Tables_number       1
_symmetry_cell_setting            triclinic
loop_
_symmetry_equiv_pos_as_xyz
  x,y,z
_cell_length_a                    15.9104
_cell_length_b                    15.9104
_cell_length_c                    14.7913
_cell_angle_alpha                 90.0000
_cell_angle_beta                  90.0000
_cell_angle_gamma                 120.0000
loop_
_atom_site_label
_atom_site_type_symbol
_atom_site_fract_x
_atom_site_fract_y
_atom_site_fract_z
_atom_site_U_iso_or_equiv
_atom_site_adp_type
_atom_site_occupancy
O1     O     0.28484   0.48457   0.24300   0.00000  Uiso   1.00
H2     H     0.24920   0.45690   0.28610   0.00000  Uiso   1.00
O3     O     0.37460   0.78950   0.12240   0.00000  Uiso   1.00
O4     O     0.26000   0.82530   0.08780   0.00000  Uiso   1.00
C5     C     0.38630   0.86850   0.98350   0.00000  Uiso   1.00
N6     N     0.48090   0.95760   0.66190   0.00000  Uiso   1.00
C7     C     0.32930   0.82150   0.07250   0.00000  Uiso   1.00
C8     C     0.48670   0.96170   0.82940   0.00000  Uiso   1.00
C9     C     0.53910   1.01070   0.74250   0.00000  Uiso   1.00
H10    H     0.55120   1.07680   0.74140   0.00000  Uiso   1.00
H11    H     0.60120   1.01310   0.74060   0.00000  Uiso   1.00
C12    C     0.40890   0.96990   0.85600   0.00000  Uiso   1.00
H13    H     0.38970   1.00680   0.82230   0.00000  Uiso   1.00
C14    C     0.35830   0.92240   0.93450   0.00000  Uiso   1.00
H15    H     0.30540   0.92780   0.95310   0.00000  Uiso   1.00
C16    C     0.46320   0.85920   0.95180   0.00000  Uiso   1.00
H17    H     0.48410   0.82360   0.98540   0.00000  Uiso   1.00
C18    C     0.50280   0.89950   0.61980   0.00000  Uiso   1.00
H19    H     0.55090   0.88820   0.64210   0.00000  Uiso   1.00
C20    C     0.41860   0.98090   0.62650   0.00000  Uiso   1.00
H21    H     0.40960   1.02800   0.65490   0.00000  Uiso   1.00
C22    C     0.50590   0.89800   0.87780   0.00000  Uiso   1.00
H23    H     0.55170   0.88340   0.85520   0.00000  Uiso   1.00
C24    C     0.36770   0.93840   0.55060   0.00000  Uiso   1.00
H25    H     0.32150   0.95330   0.53000   0.00000  Uiso   1.00
O26    O     0.37260   0.79020   0.36690   0.00000  Uiso   1.00
O27    O     0.25710   0.82670   0.39320   0.00000  Uiso   1.00
C28    C     0.38410   0.87150   0.50240   0.00000  Uiso   1.00
C29    C     0.33960   0.82800   0.41520   0.00000  Uiso   1.00
C30    C     0.45010   0.85140   0.53550   0.00000  Uiso   1.00
H31    H     0.46300   0.80750   0.50590   0.00000  Uiso   1.00
O32    O     0.51543   0.80027   0.24300   0.00000  Uiso   1.00
H33    H     0.54310   0.79230   0.28610   0.00000  Uiso   1.00
O34    O     0.21050   0.58510   0.12240   0.00000  Uiso   1.00
O35    O     0.17470   0.43470   0.08780   0.00000  Uiso   1.00
C36    C     0.13150   0.51780   0.98350   0.00000  Uiso   1.00
N37    N     0.04240   0.52330   0.66190   0.00000  Uiso   1.00
C38    C     0.17850   0.50780   0.07250   0.00000  Uiso   1.00
C39    C     0.03830   0.52500   0.82940   0.00000  Uiso   1.00
C40    C    -0.01070   0.52840   0.74250   0.00000  Uiso   1.00
H41    H    -0.07680   0.47440   0.74140   0.00000  Uiso   1.00
H42    H    -0.01310   0.58810   0.74060   0.00000  Uiso   1.00
C43    C     0.03010   0.43900   0.85600   0.00000  Uiso   1.00
H44    H    -0.00680   0.38290   0.82230   0.00000  Uiso   1.00
C45    C     0.07760   0.43590   0.93450   0.00000  Uiso   1.00
H46    H     0.07220   0.37760   0.95310   0.00000  Uiso   1.00
C47    C     0.14080   0.60400   0.95180   0.00000  Uiso   1.00
H48    H     0.17640   0.66050   0.98540   0.00000  Uiso   1.00
C49    C     0.10050   0.60330   0.61980   0.00000  Uiso   1.00
H50    H     0.11180   0.66270   0.64210   0.00000  Uiso   1.00
C51    C     0.01910   0.43770   0.62650   0.00000  Uiso   1.00
H52    H    -0.02800   0.38160   0.65490   0.00000  Uiso   1.00
C53    C     0.10200   0.60790   0.87780   0.00000  Uiso   1.00
H54    H     0.11660   0.66830   0.85520   0.00000  Uiso   1.00
C55    C     0.06160   0.42930   0.55060   0.00000  Uiso   1.00
H56    H     0.04670   0.36820   0.53000   0.00000  Uiso   1.00
O57    O     0.20980   0.58240   0.36690   0.00000  Uiso   1.00
O58    O     0.17330   0.43040   0.39320   0.00000  Uiso   1.00
C59    C     0.12850   0.51260   0.50240   0.00000  Uiso   1.00
C60    C     0.17200   0.51160   0.41520   0.00000  Uiso   1.00
C61    C     0.14860   0.59870   0.53550   0.00000  Uiso   1.00
H62    H     0.19250   0.65550   0.50590   0.00000  Uiso   1.00
O63    O     0.19973   0.71516   0.24300   0.00000  Uiso   1.00
H64    H     0.20770   0.75080   0.28610   0.00000  Uiso   1.00
O65    O     0.41490   0.62540   0.12240   0.00000  Uiso   1.00
O66    O     0.56530   0.74000   0.08780   0.00000  Uiso   1.00
C67    C     0.48220   0.61370   0.98350   0.00000  Uiso   1.00
N68    N     0.47670   0.51910   0.66190   0.00000  Uiso   1.00
C69    C     0.49220   0.67070   0.07250   0.00000  Uiso   1.00
C70    C     0.47500   0.51330   0.82940   0.00000  Uiso   1.00
C71    C     0.47160   0.46090   0.74250   0.00000  Uiso   1.00
H72    H     0.52560   0.44880   0.74140   0.00000  Uiso   1.00
H73    H     0.41190   0.39880   0.74060   0.00000  Uiso   1.00
C74    C     0.56100   0.59110   0.85600   0.00000  Uiso   1.00
H75    H     0.61710   0.61030   0.82230   0.00000  Uiso   1.00
C76    C     0.56410   0.64170   0.93450   0.00000  Uiso   1.00
H77    H     0.62240   0.69460   0.95310   0.00000  Uiso   1.00
C78    C     0.39600   0.53680   0.95180   0.00000  Uiso   1.00
H79    H     0.33950   0.51590   0.98540   0.00000  Uiso   1.00
C80    C     0.39670   0.49720   0.61980   0.00000  Uiso   1.00
H81    H     0.33730   0.44910   0.64210   0.00000  Uiso   1.00
C82    C     0.56230   0.58140   0.62650   0.00000  Uiso   1.00
H83    H     0.61840   0.59040   0.65490   0.00000  Uiso   1.00
C84    C     0.39210   0.49410   0.87780   0.00000  Uiso   1.00
H85    H     0.33170   0.44830   0.85520   0.00000  Uiso   1.00
C86    C     0.57070   0.63230   0.55060   0.00000  Uiso   1.00
H87    H     0.63180   0.67850   0.53000   0.00000  Uiso   1.00
O88    O     0.41760   0.62740   0.36690   0.00000  Uiso   1.00
O89    O     0.56960   0.74290   0.39320   0.00000  Uiso   1.00
C90    C     0.48740   0.61590   0.50240   0.00000  Uiso   1.00
C91    C     0.48840   0.66040   0.41520   0.00000  Uiso   1.00
C92    C     0.40130   0.54990   0.53550   0.00000  Uiso   1.00
H93    H     0.34450   0.53700   0.50590   0.00000  Uiso   1.00
O94    O     0.71516   0.51543   0.74300   0.00000  Uiso   1.00
H95    H     0.75080   0.54310   0.78610   0.00000  Uiso   1.00
O96    O     0.62540   0.21050   0.62240   0.00000  Uiso   1.00
O97    O     0.74000   0.17470   0.58780   0.00000  Uiso   1.00
C98    C     0.61370   0.13150   0.48350   0.00000  Uiso   1.00
N99    N     0.51910   0.04240   0.16190   0.00000  Uiso   1.00
C100   C     0.67070   0.17850   0.57250   0.00000  Uiso   1.00
C101   C     0.51330   0.03830   0.32940   0.00000  Uiso   1.00
C102   C     0.46090  -0.01070   0.24250   0.00000  Uiso   1.00
H103   H     0.44880  -0.07680   0.24140   0.00000  Uiso   1.00
H104   H     0.39880  -0.01310   0.24060   0.00000  Uiso   1.00
C105   C     0.59110   0.03010   0.35600   0.00000  Uiso   1.00
H106   H     0.61030  -0.00680   0.32230   0.00000  Uiso   1.00
C107   C     0.64170   0.07760   0.43450   0.00000  Uiso   1.00
H108   H     0.69460   0.07220   0.45310   0.00000  Uiso   1.00
C109   C     0.53680   0.14080   0.45180   0.00000  Uiso   1.00
H110   H     0.51590   0.17640   0.48540   0.00000  Uiso   1.00
C111   C     0.49720   0.10050   0.11980   0.00000  Uiso   1.00
H112   H     0.44910   0.11180   0.14210   0.00000  Uiso   1.00
C113   C     0.58140   0.01910   0.12650   0.00000  Uiso   1.00
H114   H     0.59040  -0.02800   0.15490   0.00000  Uiso   1.00
C115   C     0.49410   0.10200   0.37780   0.00000  Uiso   1.00
H116   H     0.44830   0.11660   0.35520   0.00000  Uiso   1.00
C117   C     0.63230   0.06160   0.05060   0.00000  Uiso   1.00
H118   H     0.67850   0.04670   0.03000   0.00000  Uiso   1.00
O119   O     0.62740   0.20980   0.86690   0.00000  Uiso   1.00
O120   O     0.74290   0.17330   0.89320   0.00000  Uiso   1.00
C121   C     0.61590   0.12850   0.00240   0.00000  Uiso   1.00
C122   C     0.66040   0.17200   0.91520   0.00000  Uiso   1.00
C123   C     0.54990   0.14860   0.03550   0.00000  Uiso   1.00
H124   H     0.53700   0.19250   0.00590   0.00000  Uiso   1.00
O125   O     0.48457   0.19973   0.74300   0.00000  Uiso   1.00
H126   H     0.45690   0.20770   0.78610   0.00000  Uiso   1.00
O127   O     0.78950   0.41490   0.62240   0.00000  Uiso   1.00
O128   O     0.82530   0.56530   0.58780   0.00000  Uiso   1.00
C129   C     0.86850   0.48220   0.48350   0.00000  Uiso   1.00
N130   N     0.95760   0.47670   0.16190   0.00000  Uiso   1.00
C131   C     0.82150   0.49220   0.57250   0.00000  Uiso   1.00
C132   C     0.96170   0.47500   0.32940   0.00000  Uiso   1.00
C133   C     1.01070   0.47160   0.24250   0.00000  Uiso   1.00
H134   H     1.07680   0.52560   0.24140   0.00000  Uiso   1.00
H135   H     1.01310   0.41190   0.24060   0.00000  Uiso   1.00
C136   C     0.96990   0.56100   0.35600   0.00000  Uiso   1.00
H137   H     1.00680   0.61710   0.32230   0.00000  Uiso   1.00
C138   C     0.92240   0.56410   0.43450   0.00000  Uiso   1.00
H139   H     0.92780   0.62240   0.45310   0.00000  Uiso   1.00
C140   C     0.85920   0.39600   0.45180   0.00000  Uiso   1.00
H141   H     0.82360   0.33950   0.48540   0.00000  Uiso   1.00
C142   C     0.89950   0.39670   0.11980   0.00000  Uiso   1.00
H143   H     0.88820   0.33730   0.14210   0.00000  Uiso   1.00
C144   C     0.98090   0.56230   0.12650   0.00000  Uiso   1.00
H145   H     1.02800   0.61840   0.15490   0.00000  Uiso   1.00
C146   C     0.89800   0.39210   0.37780   0.00000  Uiso   1.00
H147   H     0.88340   0.33170   0.35520   0.00000  Uiso   1.00
C148   C     0.93840   0.57070   0.05060   0.00000  Uiso   1.00
H149   H     0.95330   0.63180   0.03000   0.00000  Uiso   1.00
O150   O     0.79020   0.41760   0.86690   0.00000  Uiso   1.00
O151   O     0.82670   0.56960   0.89320   0.00000  Uiso   1.00
C152   C     0.87150   0.48740   0.00240   0.00000  Uiso   1.00
C153   C     0.82800   0.48840   0.91520   0.00000  Uiso   1.00
C154   C     0.85140   0.40130   0.03550   0.00000  Uiso   1.00
H155   H     0.80750   0.34450   0.00590   0.00000  Uiso   1.00
O156   O     0.80027   0.28484   0.74300   0.00000  Uiso   1.00
H157   H     0.79230   0.24920   0.78610   0.00000  Uiso   1.00
O158   O     0.58510   0.37460   0.62240   0.00000  Uiso   1.00
O159   O     0.43470   0.26000   0.58780   0.00000  Uiso   1.00
C160   C     0.51780   0.38630   0.48350   0.00000  Uiso   1.00
N161   N     0.52330   0.48090   0.16190   0.00000  Uiso   1.00
C162   C     0.50780   0.32930   0.57250   0.00000  Uiso   1.00
C163   C     0.52500   0.48670   0.32940   0.00000  Uiso   1.00
C164   C     0.52840   0.53910   0.24250   0.00000  Uiso   1.00
H165   H     0.47440   0.55120   0.24140   0.00000  Uiso   1.00
H166   H     0.58810   0.60120   0.24060   0.00000  Uiso   1.00
C167   C     0.43900   0.40890   0.35600   0.00000  Uiso   1.00
H168   H     0.38290   0.38970   0.32230   0.00000  Uiso   1.00
C169   C     0.43590   0.35830   0.43450   0.00000  Uiso   1.00
H170   H     0.37760   0.30540   0.45310   0.00000  Uiso   1.00
C171   C     0.60400   0.46320   0.45180   0.00000  Uiso   1.00
H172   H     0.66050   0.48410   0.48540   0.00000  Uiso   1.00
C173   C     0.60330   0.50280   0.11980   0.00000  Uiso   1.00
H174   H     0.66270   0.55090   0.14210   0.00000  Uiso   1.00
C175   C     0.43770   0.41860   0.12650   0.00000  Uiso   1.00
H176   H     0.38160   0.40960   0.15490   0.00000  Uiso   1.00
C177   C     0.60790   0.50590   0.37780   0.00000  Uiso   1.00
H178   H     0.66830   0.55170   0.35520   0.00000  Uiso   1.00
C179   C     0.42930   0.36770   0.05060   0.00000  Uiso   1.00
H180   H     0.36820   0.32150   0.03000   0.00000  Uiso   1.00
O181   O     0.58240   0.37260   0.86690   0.00000  Uiso   1.00
O182   O     0.43040   0.25710   0.89320   0.00000  Uiso   1.00
C183   C     0.51260   0.38410   0.00240   0.00000  Uiso   1.00
C184   C     0.51160   0.33960   0.91520   0.00000  Uiso   1.00
C185   C     0.59870   0.45010   0.03550   0.00000  Uiso   1.00
H186   H     0.65550   0.46300   0.00590   0.00000  Uiso   1.00
Ce187  Ce    0.33333   0.66667   0.24420   0.00000  Uiso   1.00
Ce188  Ce    0.66667   0.33333   0.74420   0.00000  Uiso   1.00
loop_
_geom_bond_atom_site_label_1
_geom_bond_atom_site_label_2
_geom_bond_distance
_geom_bond_site_symmetry_2
_ccdc_geom_bond_type
O1     Ce187   2.599   .     S
O1     H2      0.820   .     S
O3     Ce187   2.493   .     S
O3     C7      1.300   .     S
O4     C7      1.156   .     S
C5     C7      1.561   1_556 S
C5     C14     1.357   .     S
C5     C16     1.386   .     S
N6     C9      1.487   .     S
N6     C18     1.298   .     S
N6     C20     1.327   .     S
C7     C5      1.561   1_554 S
C8     C9      1.518   .     S
C8     C12     1.366   .     S
C8     C22     1.394   .     S
C9     H10     0.970   .     S
C9     H11     0.970   .     S
C12    H13     0.930   .     S
C12    C14     1.400   .     S
C14    H15     0.929   .     S
C16    H17     0.931   .     S
C16    C22     1.273   .     S
C18    H19     0.930   .     S
C18    C30     1.484   .     S
C20    H21     0.931   .     S
C20    C24     1.351   .     S
C22    H23     0.931   .     S
C24    H25     0.929   .     S
C24    C28     1.410   .     S
O26    C29     1.210   .     S
O26    Ce187   2.514   .     S
O27    C29     1.342   .     S
C28    C29     1.468   .     S
C28    C30     1.334   .     S
C30    H31     0.930   .     S
O32    Ce187   2.599   .     S
O32    H33     0.820   .     S
O34    Ce187   2.493   .     S
O34    C38     1.300   .     S
O35    C38     1.156   .     S
C36    C38     1.561   1_556 S
C36    C45     1.357   .     S
C36    C47     1.386   .     S
N37    C40     1.487   .     S
N37    C49     1.298   .     S
N37    C51     1.327   .     S
C38    C36     1.561   1_554 S
C39    C40     1.518   .     S
C39    C43     1.366   .     S
C39    C53     1.394   .     S
C40    H41     0.970   .     S
C40    H42     0.970   .     S
C43    H44     0.930   .     S
C43    C45     1.400   .     S
C45    H46     0.929   .     S
C47    H48     0.931   .     S
C47    C53     1.273   .     S
C49    H50     0.930   .     S
C49    C61     1.484   .     S
C51    H52     0.931   .     S
C51    C55     1.351   .     S
C53    H54     0.931   .     S
C55    H56     0.929   .     S
C55    C59     1.410   .     S
O57    C60     1.210   .     S
O57    Ce187   2.514   .     S
O58    C60     1.342   .     S
C59    C60     1.468   .     S
C59    C61     1.334   .     S
C61    H62     0.930   .     S
O63    Ce187   2.599   .     S
O63    H64     0.820   .     S
O65    Ce187   2.493   .     S
O65    C69     1.300   .     S
O66    C69     1.156   .     S
C67    C69     1.561   1_556 S
C67    C76     1.357   .     S
C67    C78     1.386   .     S
N68    C71     1.487   .     S
N68    C80     1.298   .     S
N68    C82     1.327   .     S
C69    C67     1.561   1_554 S
C70    C71     1.518   .     S
C70    C74     1.366   .     S
C70    C84     1.394   .     S
C71    H72     0.970   .     S
C71    H73     0.970   .     S
C74    H75     0.930   .     S
C74    C76     1.400   .     S
C76    H77     0.929   .     S
C78    H79     0.931   .     S
C78    C84     1.273   .     S
C80    H81     0.930   .     S
C80    C92     1.484   .     S
C82    H83     0.931   .     S
C82    C86     1.351   .     S
C84    H85     0.931   .     S
C86    H87     0.929   .     S
C86    C90     1.410   .     S
O88    C91     1.210   .     S
O88    Ce187   2.514   .     S
O89    C91     1.342   .     S
C90    C91     1.468   .     S
C90    C92     1.334   .     S
C92    H93     0.930   .     S
O94    Ce188   2.599   .     S
O94    H95     0.820   .     S
O96    Ce188   2.493   .     S
O96    C100    1.300   .     S
O97    C100    1.156   .     S
C98    C100    1.561   .     S
C98    C107    1.357   .     S
C98    C109    1.386   .     S
N99    C102    1.487   .     S
N99    C111    1.298   .     S
N99    C113    1.327   .     S
C101   C102    1.518   .     S
C101   C105    1.366   .     S
C101   C115    1.394   .     S
C102   H103    0.970   .     S
C102   H104    0.970   .     S
C105   H106    0.930   .     S
C105   C107    1.400   .     S
C107   H108    0.929   .     S
C109   H110    0.931   .     S
C109   C115    1.273   .     S
C111   H112    0.930   .     S
C111   C123    1.484   .     S
C113   H114    0.931   .     S
C113   C117    1.351   .     S
C115   H116    0.931   .     S
C117   H118    0.929   .     S
C117   C121    1.410   .     S
O119   C122    1.210   .     S
O119   Ce188   2.514   .     S
O120   C122    1.342   .     S
C121   C122    1.468   1_554 S
C121   C123    1.334   .     S
C122   C121    1.468   1_556 S
C123   H124    0.930   .     S
O125   Ce188   2.599   .     S
O125   H126    0.820   .     S
O127   Ce188   2.493   .     S
O127   C131    1.300   .     S
O128   C131    1.156   .     S
C129   C131    1.561   .     S
C129   C138    1.357   .     S
C129   C140    1.386   .     S
N130   C133    1.487   .     S
N130   C142    1.298   .     S
N130   C144    1.327   .     S
C132   C133    1.518   .     S
C132   C136    1.366   .     S
C132   C146    1.394   .     S
C133   H134    0.970   .     S
C133   H135    0.970   .     S
C136   H137    0.930   .     S
C136   C138    1.400   .     S
C138   H139    0.929   .     S
C140   H141    0.931   .     S
C140   C146    1.273   .     S
C142   H143    0.930   .     S
C142   C154    1.484   .     S
C144   H145    0.931   .     S
C144   C148    1.351   .     S
C146   H147    0.931   .     S
C148   H149    0.929   .     S
C148   C152    1.410   .     S
O150   C153    1.210   .     S
O150   Ce188   2.514   .     S
O151   C153    1.342   .     S
C152   C153    1.468   1_554 S
C152   C154    1.334   .     S
C153   C152    1.468   1_556 S
C154   H155    0.930   .     S
O156   Ce188   2.599   .     S
O156   H157    0.820   .     S
O158   Ce188   2.493   .     S
O158   C162    1.300   .     S
O159   C162    1.156   .     S
C160   C162    1.561   .     S
C160   C169    1.357   .     S
C160   C171    1.386   .     S
N161   C164    1.487   .     S
N161   C173    1.298   .     S
N161   C175    1.327   .     S
C163   C164    1.518   .     S
C163   C167    1.366   .     S
C163   C177    1.394   .     S
C164   H165    0.970   .     S
C164   H166    0.970   .     S
C167   H168    0.930   .     S
C167   C169    1.400   .     S
C169   H170    0.929   .     S
C171   H172    0.931   .     S
C171   C177    1.273   .     S
C173   H174    0.930   .     S
C173   C185    1.484   .     S
C175   H176    0.931   .     S
C175   C179    1.351   .     S
C177   H178    0.931   .     S
C179   H180    0.929   .     S
C179   C183    1.410   .     S
O181   C184    1.210   .     S
O181   Ce188   2.514   .     S
O182   C184    1.342   .     S
C183   C184    1.468   1_554 S
C183   C185    1.334   .     S
C184   C183    1.468   1_556 S
C185   H186    0.930   .     S
