data_RAWFAZ_FSR
_audit_creation_date              2024-06-11
_audit_creation_method            'Materials Studio'
_symmetry_space_group_name_H-M    'P1'
_symmetry_Int_Tables_number       1
_symmetry_cell_setting            triclinic
loop_
_symmetry_equiv_pos_as_xyz
  x,y,z
_cell_length_a                    20.0073
_cell_length_b                    20.9035
_cell_length_c                    8.9515
_cell_angle_alpha                 90.0000
_cell_angle_beta                  113.1860
_cell_angle_gamma                 90.0000
loop_
_atom_site_label
_atom_site_type_symbol
_atom_site_fract_x
_atom_site_fract_y
_atom_site_fract_z
_atom_site_U_iso_or_equiv
_atom_site_adp_type
_atom_site_occupancy
O1     O     0.08209   0.02950   0.12606   0.00000  Uiso   1.00
O2     O     0.12669   0.04767   0.93884   0.00000  Uiso   1.00
O3     O     0.44011   0.41663   0.58664   0.00000  Uiso   1.00
O4     O     0.47122   0.39302   0.37808   0.00000  Uiso   1.00
C5     C     0.45211   0.37850   0.49130   0.00000  Uiso   1.00
C6     C     0.44168   0.30826   0.51440   0.00000  Uiso   1.00
N7     N     0.33968   0.08897   0.44970   0.00000  Uiso   1.00
C8     C     0.13246   0.04431   0.08360   0.00000  Uiso   1.00
C9     C     0.20591   0.05976   0.21410   0.00000  Uiso   1.00
C10    C     0.42417   0.17882   0.55740   0.00000  Uiso   1.00
C11    C     0.41092   0.28781   0.62090   0.00000  Uiso   1.00
H12    H     0.39620   0.31760   0.67890   0.00000  Uiso   1.00
C13    C     0.40210   0.22333   0.64060   0.00000  Uiso   1.00
H14    H     0.38100   0.21000   0.71110   0.00000  Uiso   1.00
C15    C     0.46508   0.26333   0.43330   0.00000  Uiso   1.00
H16    H     0.48660   0.27650   0.36330   0.00000  Uiso   1.00
C17    C     0.41250   0.10846   0.57400   0.00000  Uiso   1.00
H18    H     0.41470   0.09950   0.68220   0.00000  Uiso   1.00
H19    H     0.45050   0.08410   0.55830   0.00000  Uiso   1.00
C20    C     0.21322   0.07337   0.37040   0.00000  Uiso   1.00
H21    H     0.17280   0.07220   0.39730   0.00000  Uiso   1.00
C22    C     0.45677   0.19853   0.45530   0.00000  Uiso   1.00
H23    H     0.47320   0.16840   0.40120   0.00000  Uiso   1.00
C24    C     0.26743   0.06032   0.17830   0.00000  Uiso   1.00
H25    H     0.26350   0.05130   0.07350   0.00000  Uiso   1.00
C26    C     0.28066   0.08870   0.48700   0.00000  Uiso   1.00
H27    H     0.28540   0.09890   0.59180   0.00000  Uiso   1.00
C28    C     0.33410   0.07432   0.29840   0.00000  Uiso   1.00
H29    H     0.37550   0.07370   0.27520   0.00000  Uiso   1.00
O30    O     0.58209   0.52950   0.12606   0.00000  Uiso   1.00
O31    O     0.62669   0.54767   0.93884   0.00000  Uiso   1.00
O32    O     0.94011   0.91663   0.58664   0.00000  Uiso   1.00
O33    O     0.97122   0.89302   0.37808   0.00000  Uiso   1.00
C34    C     0.95211   0.87850   0.49130   0.00000  Uiso   1.00
C35    C     0.94168   0.80826   0.51440   0.00000  Uiso   1.00
N36    N     0.83968   0.58897   0.44970   0.00000  Uiso   1.00
C37    C     0.63246   0.54431   0.08360   0.00000  Uiso   1.00
C38    C     0.70591   0.55976   0.21410   0.00000  Uiso   1.00
C39    C     0.92417   0.67882   0.55740   0.00000  Uiso   1.00
C40    C     0.91092   0.78781   0.62090   0.00000  Uiso   1.00
H41    H     0.89620   0.81760   0.67890   0.00000  Uiso   1.00
C42    C     0.90210   0.72333   0.64060   0.00000  Uiso   1.00
H43    H     0.88100   0.71000   0.71110   0.00000  Uiso   1.00
C44    C     0.96508   0.76333   0.43330   0.00000  Uiso   1.00
H45    H     0.98660   0.77650   0.36330   0.00000  Uiso   1.00
C46    C     0.91250   0.60846   0.57400   0.00000  Uiso   1.00
H47    H     0.91470   0.59950   0.68220   0.00000  Uiso   1.00
H48    H     0.95050   0.58410   0.55830   0.00000  Uiso   1.00
C49    C     0.71322   0.57337   0.37040   0.00000  Uiso   1.00
H50    H     0.67280   0.57220   0.39730   0.00000  Uiso   1.00
C51    C     0.95677   0.69853   0.45530   0.00000  Uiso   1.00
H52    H     0.97320   0.66840   0.40120   0.00000  Uiso   1.00
C53    C     0.76743   0.56032   0.17830   0.00000  Uiso   1.00
H54    H     0.76350   0.55130   0.07350   0.00000  Uiso   1.00
C55    C     0.78066   0.58870   0.48700   0.00000  Uiso   1.00
H56    H     0.78540   0.59890   0.59180   0.00000  Uiso   1.00
C57    C     0.83410   0.57432   0.29840   0.00000  Uiso   1.00
H58    H     0.87550   0.57370   0.27520   0.00000  Uiso   1.00
O59    O     0.91791   0.02950   0.37394   0.00000  Uiso   1.00
O60    O     0.87331   0.04767   0.56116   0.00000  Uiso   1.00
O61    O     0.55989   0.41663   0.91336   0.00000  Uiso   1.00
O62    O     0.52878   0.39302   0.12192   0.00000  Uiso   1.00
C63    C     0.54789   0.37850   0.00870   0.00000  Uiso   1.00
C64    C     0.55832   0.30826   0.98560   0.00000  Uiso   1.00
N65    N     0.66032   0.08897   0.05030   0.00000  Uiso   1.00
C66    C     0.86754   0.04431   0.41640   0.00000  Uiso   1.00
C67    C     0.79409   0.05976   0.28590   0.00000  Uiso   1.00
C68    C     0.57583   0.17882   0.94260   0.00000  Uiso   1.00
C69    C     0.58908   0.28781   0.87910   0.00000  Uiso   1.00
H70    H     0.60380   0.31760   0.82110   0.00000  Uiso   1.00
C71    C     0.59790   0.22333   0.85940   0.00000  Uiso   1.00
H72    H     0.61900   0.21000   0.78890   0.00000  Uiso   1.00
C73    C     0.53492   0.26333   0.06670   0.00000  Uiso   1.00
H74    H     0.51340   0.27650   0.13670   0.00000  Uiso   1.00
C75    C     0.58750   0.10846   0.92600   0.00000  Uiso   1.00
H76    H     0.58530   0.09950   0.81780   0.00000  Uiso   1.00
H77    H     0.54950   0.08410   0.94170   0.00000  Uiso   1.00
C78    C     0.78678   0.07337   0.12960   0.00000  Uiso   1.00
H79    H     0.82720   0.07220   0.10270   0.00000  Uiso   1.00
C80    C     0.54323   0.19853   0.04470   0.00000  Uiso   1.00
H81    H     0.52680   0.16840   0.09880   0.00000  Uiso   1.00
C82    C     0.73257   0.06032   0.32170   0.00000  Uiso   1.00
H83    H     0.73650   0.05130   0.42650   0.00000  Uiso   1.00
C84    C     0.71934   0.08870   0.01300   0.00000  Uiso   1.00
H85    H     0.71460   0.09890   0.90820   0.00000  Uiso   1.00
C86    C     0.66590   0.07432   0.20160   0.00000  Uiso   1.00
H87    H     0.62450   0.07370   0.22480   0.00000  Uiso   1.00
O88    O     0.41791   0.52950   0.37394   0.00000  Uiso   1.00
O89    O     0.37331   0.54767   0.56116   0.00000  Uiso   1.00
O90    O     0.05989   0.91663   0.91336   0.00000  Uiso   1.00
O91    O     0.02878   0.89302   0.12192   0.00000  Uiso   1.00
C92    C     0.04789   0.87850   0.00870   0.00000  Uiso   1.00
C93    C     0.05832   0.80826   0.98560   0.00000  Uiso   1.00
N94    N     0.16032   0.58897   0.05030   0.00000  Uiso   1.00
C95    C     0.36754   0.54431   0.41640   0.00000  Uiso   1.00
C96    C     0.29409   0.55976   0.28590   0.00000  Uiso   1.00
C97    C     0.07583   0.67882   0.94260   0.00000  Uiso   1.00
C98    C     0.08908   0.78781   0.87910   0.00000  Uiso   1.00
H99    H     0.10380   0.81760   0.82110   0.00000  Uiso   1.00
C100   C     0.09790   0.72333   0.85940   0.00000  Uiso   1.00
H101   H     0.11900   0.71000   0.78890   0.00000  Uiso   1.00
C102   C     0.03492   0.76333   0.06670   0.00000  Uiso   1.00
H103   H     0.01340   0.77650   0.13670   0.00000  Uiso   1.00
C104   C     0.08750   0.60846   0.92600   0.00000  Uiso   1.00
H105   H     0.08530   0.59950   0.81780   0.00000  Uiso   1.00
H106   H     0.04950   0.58410   0.94170   0.00000  Uiso   1.00
C107   C     0.28678   0.57337   0.12960   0.00000  Uiso   1.00
H108   H     0.32720   0.57220   0.10270   0.00000  Uiso   1.00
C109   C     0.04323   0.69853   0.04470   0.00000  Uiso   1.00
H110   H     0.02680   0.66840   0.09880   0.00000  Uiso   1.00
C111   C     0.23257   0.56032   0.32170   0.00000  Uiso   1.00
H112   H     0.23650   0.55130   0.42650   0.00000  Uiso   1.00
C113   C     0.21934   0.58870   0.01300   0.00000  Uiso   1.00
H114   H     0.21460   0.59890   0.90820   0.00000  Uiso   1.00
C115   C     0.16590   0.57432   0.20160   0.00000  Uiso   1.00
H116   H     0.12450   0.57370   0.22480   0.00000  Uiso   1.00
O117   O     0.91791   0.97050   0.87394   0.00000  Uiso   1.00
O118   O     0.87331   0.95233   0.06116   0.00000  Uiso   1.00
O119   O     0.55989   0.58337   0.41336   0.00000  Uiso   1.00
O120   O     0.52878   0.60698   0.62192   0.00000  Uiso   1.00
C121   C     0.54789   0.62150   0.50870   0.00000  Uiso   1.00
C122   C     0.55832   0.69174   0.48560   0.00000  Uiso   1.00
N123   N     0.66032   0.91103   0.55030   0.00000  Uiso   1.00
C124   C     0.86754   0.95569   0.91640   0.00000  Uiso   1.00
C125   C     0.79409   0.94024   0.78590   0.00000  Uiso   1.00
C126   C     0.57583   0.82118   0.44260   0.00000  Uiso   1.00
C127   C     0.58908   0.71219   0.37910   0.00000  Uiso   1.00
H128   H     0.60380   0.68240   0.32110   0.00000  Uiso   1.00
C129   C     0.59790   0.77667   0.35940   0.00000  Uiso   1.00
H130   H     0.61900   0.79000   0.28890   0.00000  Uiso   1.00
C131   C     0.53492   0.73667   0.56670   0.00000  Uiso   1.00
H132   H     0.51340   0.72350   0.63670   0.00000  Uiso   1.00
C133   C     0.58750   0.89154   0.42600   0.00000  Uiso   1.00
H134   H     0.58530   0.90050   0.31780   0.00000  Uiso   1.00
H135   H     0.54950   0.91590   0.44170   0.00000  Uiso   1.00
C136   C     0.78678   0.92663   0.62960   0.00000  Uiso   1.00
H137   H     0.82720   0.92780   0.60270   0.00000  Uiso   1.00
C138   C     0.54323   0.80147   0.54470   0.00000  Uiso   1.00
H139   H     0.52680   0.83160   0.59880   0.00000  Uiso   1.00
C140   C     0.73257   0.93968   0.82170   0.00000  Uiso   1.00
H141   H     0.73650   0.94870   0.92650   0.00000  Uiso   1.00
C142   C     0.71934   0.91130   0.51300   0.00000  Uiso   1.00
H143   H     0.71460   0.90110   0.40820   0.00000  Uiso   1.00
C144   C     0.66590   0.92568   0.70160   0.00000  Uiso   1.00
H145   H     0.62450   0.92630   0.72480   0.00000  Uiso   1.00
O146   O     0.41791   0.47050   0.87394   0.00000  Uiso   1.00
O147   O     0.37331   0.45233   0.06116   0.00000  Uiso   1.00
O148   O     0.05989   0.08337   0.41336   0.00000  Uiso   1.00
O149   O     0.02878   0.10698   0.62192   0.00000  Uiso   1.00
C150   C     0.04789   0.12150   0.50870   0.00000  Uiso   1.00
C151   C     0.05832   0.19174   0.48560   0.00000  Uiso   1.00
N152   N     0.16032   0.41103   0.55030   0.00000  Uiso   1.00
C153   C     0.36754   0.45569   0.91640   0.00000  Uiso   1.00
C154   C     0.29409   0.44024   0.78590   0.00000  Uiso   1.00
C155   C     0.07583   0.32118   0.44260   0.00000  Uiso   1.00
C156   C     0.08908   0.21219   0.37910   0.00000  Uiso   1.00
H157   H     0.10380   0.18240   0.32110   0.00000  Uiso   1.00
C158   C     0.09790   0.27667   0.35940   0.00000  Uiso   1.00
H159   H     0.11900   0.29000   0.28890   0.00000  Uiso   1.00
C160   C     0.03492   0.23667   0.56670   0.00000  Uiso   1.00
H161   H     0.01340   0.22350   0.63670   0.00000  Uiso   1.00
C162   C     0.08750   0.39154   0.42600   0.00000  Uiso   1.00
H163   H     0.08530   0.40050   0.31780   0.00000  Uiso   1.00
H164   H     0.04950   0.41590   0.44170   0.00000  Uiso   1.00
C165   C     0.28678   0.42663   0.62960   0.00000  Uiso   1.00
H166   H     0.32720   0.42780   0.60270   0.00000  Uiso   1.00
C167   C     0.04323   0.30147   0.54470   0.00000  Uiso   1.00
H168   H     0.02680   0.33160   0.59880   0.00000  Uiso   1.00
C169   C     0.23257   0.43968   0.82170   0.00000  Uiso   1.00
H170   H     0.23650   0.44870   0.92650   0.00000  Uiso   1.00
C171   C     0.21934   0.41130   0.51300   0.00000  Uiso   1.00
H172   H     0.21460   0.40110   0.40820   0.00000  Uiso   1.00
C173   C     0.16590   0.42568   0.70160   0.00000  Uiso   1.00
H174   H     0.12450   0.42630   0.72480   0.00000  Uiso   1.00
O175   O     0.08209   0.97050   0.62606   0.00000  Uiso   1.00
O176   O     0.12669   0.95233   0.43884   0.00000  Uiso   1.00
O177   O     0.44011   0.58337   0.08664   0.00000  Uiso   1.00
O178   O     0.47122   0.60698   0.87808   0.00000  Uiso   1.00
C179   C     0.45211   0.62150   0.99130   0.00000  Uiso   1.00
C180   C     0.44168   0.69174   0.01440   0.00000  Uiso   1.00
N181   N     0.33968   0.91103   0.94970   0.00000  Uiso   1.00
C182   C     0.13246   0.95569   0.58360   0.00000  Uiso   1.00
C183   C     0.20591   0.94024   0.71410   0.00000  Uiso   1.00
C184   C     0.42417   0.82118   0.05740   0.00000  Uiso   1.00
C185   C     0.41092   0.71219   0.12090   0.00000  Uiso   1.00
H186   H     0.39620   0.68240   0.17890   0.00000  Uiso   1.00
C187   C     0.40210   0.77667   0.14060   0.00000  Uiso   1.00
H188   H     0.38100   0.79000   0.21110   0.00000  Uiso   1.00
C189   C     0.46508   0.73667   0.93330   0.00000  Uiso   1.00
H190   H     0.48660   0.72350   0.86330   0.00000  Uiso   1.00
C191   C     0.41250   0.89154   0.07400   0.00000  Uiso   1.00
H192   H     0.41470   0.90050   0.18220   0.00000  Uiso   1.00
H193   H     0.45050   0.91590   0.05830   0.00000  Uiso   1.00
C194   C     0.21322   0.92663   0.87040   0.00000  Uiso   1.00
H195   H     0.17280   0.92780   0.89730   0.00000  Uiso   1.00
C196   C     0.45677   0.80147   0.95530   0.00000  Uiso   1.00
H197   H     0.47320   0.83160   0.90120   0.00000  Uiso   1.00
C198   C     0.26743   0.93968   0.67830   0.00000  Uiso   1.00
H199   H     0.26350   0.94870   0.57350   0.00000  Uiso   1.00
C200   C     0.28066   0.91130   0.98700   0.00000  Uiso   1.00
H201   H     0.28540   0.90110   0.09180   0.00000  Uiso   1.00
C202   C     0.33410   0.92568   0.79840   0.00000  Uiso   1.00
H203   H     0.37550   0.92630   0.77520   0.00000  Uiso   1.00
O204   O     0.58209   0.47050   0.62606   0.00000  Uiso   1.00
O205   O     0.62669   0.45233   0.43884   0.00000  Uiso   1.00
O206   O     0.94011   0.08337   0.08664   0.00000  Uiso   1.00
O207   O     0.97122   0.10698   0.87808   0.00000  Uiso   1.00
C208   C     0.95211   0.12150   0.99130   0.00000  Uiso   1.00
C209   C     0.94168   0.19174   0.01440   0.00000  Uiso   1.00
N210   N     0.83968   0.41103   0.94970   0.00000  Uiso   1.00
C211   C     0.63246   0.45569   0.58360   0.00000  Uiso   1.00
C212   C     0.70591   0.44024   0.71410   0.00000  Uiso   1.00
C213   C     0.92417   0.32118   0.05740   0.00000  Uiso   1.00
C214   C     0.91092   0.21219   0.12090   0.00000  Uiso   1.00
H215   H     0.89620   0.18240   0.17890   0.00000  Uiso   1.00
C216   C     0.90210   0.27667   0.14060   0.00000  Uiso   1.00
H217   H     0.88100   0.29000   0.21110   0.00000  Uiso   1.00
C218   C     0.96508   0.23667   0.93330   0.00000  Uiso   1.00
H219   H     0.98660   0.22350   0.86330   0.00000  Uiso   1.00
C220   C     0.91250   0.39154   0.07400   0.00000  Uiso   1.00
H221   H     0.91470   0.40050   0.18220   0.00000  Uiso   1.00
H222   H     0.95050   0.41590   0.05830   0.00000  Uiso   1.00
C223   C     0.71322   0.42663   0.87040   0.00000  Uiso   1.00
H224   H     0.67280   0.42780   0.89730   0.00000  Uiso   1.00
C225   C     0.95677   0.30147   0.95530   0.00000  Uiso   1.00
H226   H     0.97320   0.33160   0.90120   0.00000  Uiso   1.00
C227   C     0.76743   0.43968   0.67830   0.00000  Uiso   1.00
H228   H     0.76350   0.44870   0.57350   0.00000  Uiso   1.00
C229   C     0.78066   0.41130   0.98700   0.00000  Uiso   1.00
H230   H     0.78540   0.40110   0.09180   0.00000  Uiso   1.00
C231   C     0.83410   0.42568   0.79840   0.00000  Uiso   1.00
H232   H     0.87550   0.42630   0.77520   0.00000  Uiso   1.00
Ce233  Ce    0.50000   0.51168   0.75000   0.00000  Uiso   1.00
Ce234  Ce    0.00000   0.01168   0.75000   0.00000  Uiso   1.00
Ce235  Ce    0.50000   0.48832   0.25000   0.00000  Uiso   1.00
Ce236  Ce    0.00000   0.98832   0.25000   0.00000  Uiso   1.00
loop_
_geom_bond_atom_site_label_1
_geom_bond_atom_site_label_2
_geom_bond_distance
_geom_bond_site_symmetry_2
_ccdc_geom_bond_type
O1     C8      1.248   .     S
O1     Ce236   2.471   1_545 S
O2     C8      1.257   1_556 S
O2     Ce234   2.544   .     S
O3     Ce233   2.478   .     S
O3     C5      1.258   .     S
O4     C5      1.253   .     S
O4     Ce235   2.477   .     S
C5     C6      1.509   .     S
C6     C11     1.390   .     S
C6     C15     1.377   .     S
N7     C17     1.500   .     S
N7     C26     1.348   .     S
N7     C28     1.350   .     S
C8     O2      1.257   1_554 S
C8     C9      1.509   .     S
C9     C20     1.378   .     S
C9     C24     1.389   .     S
C10    C13     1.369   .     S
C10    C17     1.506   .     S
C10    C22     1.378   .     S
C11    H12     0.930   .     S
C11    C13     1.380   .     S
C13    H14     0.929   .     S
C15    H16     0.931   .     S
C15    C22     1.388   .     S
C17    H18     0.970   .     S
C17    H19     0.970   .     S
C20    H21     0.931   .     S
C20    C26     1.380   .     S
C22    H23     0.930   .     S
C24    H25     0.929   .     S
C24    C28     1.375   .     S
C26    H27     0.930   .     S
C28    H29     0.930   .     S
O30    C37     1.248   .     S
O30    Ce235   2.471   .     S
O31    C37     1.257   1_556 S
O31    Ce233   2.544   .     S
O32    Ce234   2.478   1_665 S
O32    C34     1.258   .     S
O33    C34     1.253   .     S
O33    Ce236   2.477   1_655 S
C34    C35     1.509   .     S
C35    C40     1.390   .     S
C35    C44     1.377   .     S
N36    C46     1.500   .     S
N36    C55     1.348   .     S
N36    C57     1.350   .     S
C37    O31     1.257   1_554 S
C37    C38     1.509   .     S
C38    C49     1.378   .     S
C38    C53     1.389   .     S
C39    C42     1.369   .     S
C39    C46     1.506   .     S
C39    C51     1.378   .     S
C40    H41     0.930   .     S
C40    C42     1.380   .     S
C42    H43     0.929   .     S
C44    H45     0.931   .     S
C44    C51     1.388   .     S
C46    H47     0.970   .     S
C46    H48     0.970   .     S
C49    H50     0.931   .     S
C49    C55     1.380   .     S
C51    H52     0.930   .     S
C53    H54     0.929   .     S
C53    C57     1.375   .     S
C55    H56     0.930   .     S
C57    H58     0.930   .     S
O59    C66     1.248   .     S
O59    Ce236   2.471   1_645 S
O60    C66     1.257   .     S
O60    Ce234   2.544   1_655 S
O61    Ce233   2.478   .     S
O61    C63     1.258   1_556 S
O62    C63     1.253   .     S
O62    Ce235   2.477   .     S
C63    O61     1.258   1_554 S
C63    C64     1.509   1_554 S
C64    C63     1.509   1_556 S
C64    C69     1.390   .     S
C64    C73     1.377   1_556 S
N65    C75     1.500   1_554 S
N65    C84     1.348   .     S
N65    C86     1.350   .     S
C66    C67     1.509   .     S
C67    C78     1.378   .     S
C67    C82     1.389   .     S
C68    C71     1.369   .     S
C68    C75     1.506   .     S
C68    C80     1.378   1_556 S
C69    H70     0.930   .     S
C69    C71     1.380   .     S
C71    H72     0.929   .     S
C73    C64     1.377   1_554 S
C73    H74     0.931   .     S
C73    C80     1.388   .     S
C75    N65     1.500   1_556 S
C75    H76     0.970   .     S
C75    H77     0.970   .     S
C78    H79     0.931   .     S
C78    C84     1.380   .     S
C80    C68     1.378   1_554 S
C80    H81     0.930   .     S
C82    H83     0.929   .     S
C82    C86     1.375   .     S
C84    H85     0.930   1_554 S
H85    C84     0.930   1_556 S
C86    H87     0.930   .     S
O88    C95     1.248   .     S
O88    Ce235   2.471   .     S
O89    C95     1.257   .     S
O89    Ce233   2.544   .     S
O90    Ce234   2.478   1_565 S
O90    C92     1.258   1_556 S
O91    C92     1.253   .     S
O91    Ce236   2.477   .     S
C92    O90     1.258   1_554 S
C92    C93     1.509   1_554 S
C93    C92     1.509   1_556 S
C93    C98     1.390   .     S
C93    C102    1.377   1_556 S
N94    C104    1.500   1_554 S
N94    C113    1.348   .     S
N94    C115    1.350   .     S
C95    C96     1.509   .     S
C96    C107    1.378   .     S
C96    C111    1.389   .     S
C97    C100    1.369   .     S
C97    C104    1.506   .     S
C97    C109    1.378   1_556 S
C98    H99     0.930   .     S
C98    C100    1.380   .     S
C100   H101    0.929   .     S
C102   C93     1.377   1_554 S
C102   H103    0.931   .     S
C102   C109    1.388   .     S
C104   N94     1.500   1_556 S
C104   H105    0.970   .     S
C104   H106    0.970   .     S
C107   H108    0.931   .     S
C107   C113    1.380   .     S
C109   C97     1.378   1_554 S
C109   H110    0.930   .     S
C111   H112    0.929   .     S
C111   C115    1.375   .     S
C113   H114    0.930   1_554 S
H114   C113    0.930   1_556 S
C115   H116    0.930   .     S
O117   C124    1.248   .     S
O117   Ce234   2.471   1_665 S
O118   C124    1.257   1_554 S
O118   Ce236   2.544   1_655 S
O119   Ce235   2.478   .     S
O119   C121    1.258   .     S
O120   C121    1.253   .     S
O120   Ce233   2.477   .     S
C121   C122    1.509   .     S
C122   C127    1.390   .     S
C122   C131    1.377   .     S
N123   C133    1.500   .     S
N123   C142    1.348   .     S
N123   C144    1.350   .     S
C124   O118    1.257   1_556 S
C124   C125    1.509   .     S
C125   C136    1.378   .     S
C125   C140    1.389   .     S
C126   C129    1.369   .     S
C126   C133    1.506   .     S
C126   C138    1.378   .     S
C127   H128    0.930   .     S
C127   C129    1.380   .     S
C129   H130    0.929   .     S
C131   H132    0.931   .     S
C131   C138    1.388   .     S
C133   H134    0.970   .     S
C133   H135    0.970   .     S
C136   H137    0.931   .     S
C136   C142    1.380   .     S
C138   H139    0.930   .     S
C140   H141    0.929   .     S
C140   C144    1.375   .     S
C142   H143    0.930   .     S
C144   H145    0.930   .     S
O146   C153    1.248   .     S
O146   Ce233   2.471   .     S
O147   C153    1.257   1_554 S
O147   Ce235   2.544   .     S
O148   Ce236   2.478   1_545 S
O148   C150    1.258   .     S
O149   C150    1.253   .     S
O149   Ce234   2.477   .     S
C150   C151    1.509   .     S
C151   C156    1.390   .     S
C151   C160    1.377   .     S
N152   C162    1.500   .     S
N152   C171    1.348   .     S
N152   C173    1.350   .     S
C153   O147    1.257   1_556 S
C153   C154    1.509   .     S
C154   C165    1.378   .     S
C154   C169    1.389   .     S
C155   C158    1.369   .     S
C155   C162    1.506   .     S
C155   C167    1.378   .     S
C156   H157    0.930   .     S
C156   C158    1.380   .     S
C158   H159    0.929   .     S
C160   H161    0.931   .     S
C160   C167    1.388   .     S
C162   H163    0.970   .     S
C162   H164    0.970   .     S
C165   H166    0.931   .     S
C165   C171    1.380   .     S
C167   H168    0.930   .     S
C169   H170    0.929   .     S
C169   C173    1.375   .     S
C171   H172    0.930   .     S
C173   H174    0.930   .     S
O175   C182    1.248   .     S
O175   Ce234   2.471   1_565 S
O176   C182    1.257   .     S
O176   Ce236   2.544   .     S
O177   Ce235   2.478   .     S
O177   C179    1.258   1_554 S
O178   C179    1.253   .     S
O178   Ce233   2.477   .     S
C179   O177    1.258   1_556 S
C179   C180    1.509   1_556 S
C180   C179    1.509   1_554 S
C180   C185    1.390   .     S
C180   C189    1.377   1_554 S
N181   C191    1.500   1_556 S
N181   C200    1.348   .     S
N181   C202    1.350   .     S
C182   C183    1.509   .     S
C183   C194    1.378   .     S
C183   C198    1.389   .     S
C184   C187    1.369   .     S
C184   C191    1.506   .     S
C184   C196    1.378   1_554 S
C185   H186    0.930   .     S
C185   C187    1.380   .     S
C187   H188    0.929   .     S
C189   C180    1.377   1_556 S
C189   H190    0.931   .     S
C189   C196    1.388   .     S
C191   N181    1.500   1_554 S
C191   H192    0.970   .     S
C191   H193    0.970   .     S
C194   H195    0.931   .     S
C194   C200    1.380   .     S
C196   C184    1.378   1_556 S
C196   H197    0.930   .     S
C198   H199    0.929   .     S
C198   C202    1.375   .     S
C200   H201    0.930   1_556 S
H201   C200    0.930   1_554 S
C202   H203    0.930   .     S
O204   C211    1.248   .     S
O204   Ce233   2.471   .     S
O205   C211    1.257   .     S
O205   Ce235   2.544   .     S
O206   Ce236   2.478   1_645 S
O206   C208    1.258   1_554 S
O207   C208    1.253   .     S
O207   Ce234   2.477   1_655 S
C208   O206    1.258   1_556 S
C208   C209    1.509   1_556 S
C209   C208    1.509   1_554 S
C209   C214    1.390   .     S
C209   C218    1.377   1_554 S
N210   C220    1.500   1_556 S
N210   C229    1.348   .     S
N210   C231    1.350   .     S
C211   C212    1.509   .     S
C212   C223    1.378   .     S
C212   C227    1.389   .     S
C213   C216    1.369   .     S
C213   C220    1.506   .     S
C213   C225    1.378   1_554 S
C214   H215    0.930   .     S
C214   C216    1.380   .     S
C216   H217    0.929   .     S
C218   C209    1.377   1_556 S
C218   H219    0.931   .     S
C218   C225    1.388   .     S
C220   N210    1.500   1_554 S
C220   H221    0.970   .     S
C220   H222    0.970   .     S
C223   H224    0.931   .     S
C223   C229    1.380   .     S
C225   C213    1.378   1_556 S
C225   H226    0.930   .     S
C227   H228    0.929   .     S
C227   C231    1.375   .     S
C229   H230    0.930   1_556 S
H230   C229    0.930   1_554 S
C231   H232    0.930   .     S
Ce234  O32     2.478   1_445 S
Ce234  O90     2.478   1_545 S
Ce234  O117    2.471   1_445 S
Ce234  O175    2.471   1_545 S
Ce234  O60     2.544   1_455 S
Ce234  O207    2.477   1_455 S
Ce236  O148    2.478   1_565 S
Ce236  O206    2.478   1_465 S
Ce236  O1      2.471   1_565 S
Ce236  O59     2.471   1_465 S
Ce236  O118    2.544   1_455 S
Ce236  O33     2.477   1_455 S
