data_RAXXEV_FSR
_audit_creation_date              2024-06-11
_audit_creation_method            'Materials Studio'
_symmetry_space_group_name_H-M    'P1'
_symmetry_Int_Tables_number       1
_symmetry_cell_setting            triclinic
loop_
_symmetry_equiv_pos_as_xyz
  x,y,z
_cell_length_a                    27.4290
_cell_length_b                    27.4290
_cell_length_c                    9.8970
_cell_angle_alpha                 90.0000
_cell_angle_beta                  90.0000
_cell_angle_gamma                 90.0000
loop_
_atom_site_label
_atom_site_type_symbol
_atom_site_fract_x
_atom_site_fract_y
_atom_site_fract_z
_atom_site_U_iso_or_equiv
_atom_site_adp_type
_atom_site_occupancy
C1     C     0.49820   0.41580   0.72690   0.00000  Uiso   1.00
C2     C     0.47730   0.43420   0.85880   0.00000  Uiso   1.00
C3     C     0.49500   0.42000   0.98340   0.00000  Uiso   1.00
H4     H     0.52040   0.39750   0.98720   0.00000  Uiso   1.00
C5     C     0.47610   0.43830   0.10240   0.00000  Uiso   1.00
C6     C     0.49710   0.42500   0.23510   0.00000  Uiso   1.00
C7     C     0.43570   0.46900   0.09450   0.00000  Uiso   1.00
H8     H     0.42100   0.48010   0.17340   0.00000  Uiso   1.00
C9     C     0.41750   0.48290   0.97250   0.00000  Uiso   1.00
C10    C     0.43520   0.46540   0.85440   0.00000  Uiso   1.00
H11    H     0.42050   0.47340   0.77260   0.00000  Uiso   1.00
C12    C     0.37390   0.55430   0.87250   0.00000  Uiso   1.00
H13    H     0.39740   0.56250   0.80870   0.00000  Uiso   1.00
N14    N     0.32851   0.57830   0.89120   0.00000  Uiso   1.00
N15    N     0.30350   0.55480   0.99870   0.00000  Uiso   1.00
C16    C     0.33350   0.51620   0.04640   0.00000  Uiso   1.00
H17    H     0.32580   0.49500   0.11660   0.00000  Uiso   1.00
N18    N     0.66760   0.61280   0.63710   0.00000  Uiso   1.00
C19    C     0.62280   0.63850   0.62830   0.00000  Uiso   1.00
H20    H     0.59400   0.62670   0.59110   0.00000  Uiso   1.00
N21    N     0.62960   0.68530   0.68640   0.00000  Uiso   1.00
N22    N     0.67870   0.68860   0.73100   0.00000  Uiso   1.00
C23    C     0.70220   0.64380   0.70060   0.00000  Uiso   1.00
H24    H     0.73450   0.63610   0.71900   0.00000  Uiso   1.00
C25    C     0.61199   0.44840   0.49920   0.00000  Uiso   1.00
C26    C     0.65340   0.48350   0.52180   0.00000  Uiso   1.00
C27    C     0.70140   0.46750   0.51880   0.00000  Uiso   1.00
H28    H     0.70840   0.43490   0.50170   0.00000  Uiso   1.00
C29    C     0.73970   0.50100   0.54180   0.00000  Uiso   1.00
C30    C     0.79056   0.48670   0.52870   0.00000  Uiso   1.00
C31    C     0.72830   0.54930   0.57650   0.00000  Uiso   1.00
H32    H     0.75260   0.57190   0.59500   0.00000  Uiso   1.00
C33    C     0.68080   0.56190   0.58220   0.00000  Uiso   1.00
C34    C     0.64240   0.53270   0.55700   0.00000  Uiso   1.00
H35    H     0.61050   0.54400   0.56230   0.00000  Uiso   1.00
Cd36   Cd    0.53454   0.38643   0.48094   0.00000  Uiso   1.00
N37    N     0.37730   0.51550   0.96810   0.00000  Uiso   1.00
O38    O     0.48046   0.43174   0.62280   0.00000  Uiso   1.00
O39    O     0.53279   0.38510   0.73430   0.00000  Uiso   1.00
O40    O     0.53142   0.39348   0.23890   0.00000  Uiso   1.00
O41    O     0.47755   0.44110   0.34020   0.00000  Uiso   1.00
O42    O     0.61954   0.40325   0.49890   0.00000  Uiso   1.00
O43    O     0.57091   0.46740   0.47960   0.00000  Uiso   1.00
O44    O     0.80214   0.44212   0.51800   0.00000  Uiso   1.00
O45    O     0.82323   0.52089   0.53310   0.00000  Uiso   1.00
C46    C     1.00180   0.08420   0.72690   0.00000  Uiso   1.00
C47    C     1.02270   0.06580   0.85880   0.00000  Uiso   1.00
C48    C     1.00500   0.08000   0.98340   0.00000  Uiso   1.00
H49    H     0.97960   0.10250   0.98720   0.00000  Uiso   1.00
C50    C     1.02390   0.06170   0.10240   0.00000  Uiso   1.00
C51    C     1.00290   0.07500   0.23510   0.00000  Uiso   1.00
C52    C     1.06430   0.03100   0.09450   0.00000  Uiso   1.00
H53    H     1.07900   0.01990   0.17340   0.00000  Uiso   1.00
C54    C     1.08250   0.01710   0.97250   0.00000  Uiso   1.00
C55    C     1.06480   0.03460   0.85440   0.00000  Uiso   1.00
H56    H     1.07950   0.02660   0.77260   0.00000  Uiso   1.00
C57    C     1.12610  -0.05430   0.87250   0.00000  Uiso   1.00
H58    H     1.10260  -0.06250   0.80870   0.00000  Uiso   1.00
N59    N     1.17149  -0.07830   0.89120   0.00000  Uiso   1.00
N60    N     1.19650  -0.05480   0.99870   0.00000  Uiso   1.00
C61    C     1.16650  -0.01620   0.04640   0.00000  Uiso   1.00
H62    H     1.17420   0.00500   0.11660   0.00000  Uiso   1.00
N63    N     0.83240  -0.11280   0.63710   0.00000  Uiso   1.00
C64    C     0.87720  -0.13850   0.62830   0.00000  Uiso   1.00
H65    H     0.90600  -0.12670   0.59110   0.00000  Uiso   1.00
N66    N     0.87040  -0.18530   0.68640   0.00000  Uiso   1.00
N67    N     0.82130  -0.18860   0.73100   0.00000  Uiso   1.00
C68    C     0.79780  -0.14380   0.70060   0.00000  Uiso   1.00
H69    H     0.76550  -0.13610   0.71900   0.00000  Uiso   1.00
C70    C     0.88801   0.05160   0.49920   0.00000  Uiso   1.00
C71    C     0.84660   0.01650   0.52180   0.00000  Uiso   1.00
C72    C     0.79860   0.03250   0.51880   0.00000  Uiso   1.00
H73    H     0.79160   0.06510   0.50170   0.00000  Uiso   1.00
C74    C     0.76030  -0.00100   0.54180   0.00000  Uiso   1.00
C75    C     0.70944   0.01330   0.52870   0.00000  Uiso   1.00
C76    C     0.77170  -0.04930   0.57650   0.00000  Uiso   1.00
H77    H     0.74740  -0.07190   0.59500   0.00000  Uiso   1.00
C78    C     0.81920  -0.06190   0.58220   0.00000  Uiso   1.00
C79    C     0.85760  -0.03270   0.55700   0.00000  Uiso   1.00
H80    H     0.88950  -0.04400   0.56230   0.00000  Uiso   1.00
Cd81   Cd    0.96546   0.11357   0.48094   0.00000  Uiso   1.00
N82    N     1.12270  -0.01550   0.96810   0.00000  Uiso   1.00
O83    O     1.01954   0.06826   0.62280   0.00000  Uiso   1.00
O84    O     0.96721   0.11490   0.73430   0.00000  Uiso   1.00
O85    O     0.96858   0.10652   0.23890   0.00000  Uiso   1.00
O86    O     1.02245   0.05890   0.34020   0.00000  Uiso   1.00
O87    O     0.88046   0.09675   0.49890   0.00000  Uiso   1.00
O88    O     0.92909   0.03260   0.47960   0.00000  Uiso   1.00
O89    O     0.69786   0.05788   0.51800   0.00000  Uiso   1.00
O90    O     0.67677  -0.02089   0.53310   0.00000  Uiso   1.00
C91    C     0.08420   0.49820   0.72690   0.00000  Uiso   1.00
C92    C     0.06580   0.47730   0.85880   0.00000  Uiso   1.00
C93    C     0.08000   0.49500   0.98340   0.00000  Uiso   1.00
H94    H     0.10250   0.52040   0.98720   0.00000  Uiso   1.00
C95    C     0.06170   0.47610   0.10240   0.00000  Uiso   1.00
C96    C     0.07500   0.49710   0.23510   0.00000  Uiso   1.00
C97    C     0.03100   0.43570   0.09450   0.00000  Uiso   1.00
H98    H     0.01990   0.42100   0.17340   0.00000  Uiso   1.00
C99    C     0.01710   0.41750   0.97250   0.00000  Uiso   1.00
C100   C     0.03460   0.43520   0.85440   0.00000  Uiso   1.00
H101   H     0.02660   0.42050   0.77260   0.00000  Uiso   1.00
C102   C    -0.05430   0.37390   0.87250   0.00000  Uiso   1.00
H103   H    -0.06250   0.39740   0.80870   0.00000  Uiso   1.00
N104   N    -0.07830   0.32851   0.89120   0.00000  Uiso   1.00
N105   N    -0.05480   0.30350   0.99870   0.00000  Uiso   1.00
C106   C    -0.01620   0.33350   0.04640   0.00000  Uiso   1.00
H107   H     0.00500   0.32580   0.11660   0.00000  Uiso   1.00
N108   N    -0.11280   0.66760   0.63710   0.00000  Uiso   1.00
C109   C    -0.13850   0.62280   0.62830   0.00000  Uiso   1.00
H110   H    -0.12670   0.59400   0.59110   0.00000  Uiso   1.00
N111   N    -0.18530   0.62960   0.68640   0.00000  Uiso   1.00
N112   N    -0.18860   0.67870   0.73100   0.00000  Uiso   1.00
C113   C    -0.14380   0.70220   0.70060   0.00000  Uiso   1.00
H114   H    -0.13610   0.73450   0.71900   0.00000  Uiso   1.00
C115   C     0.05160   0.61199   0.49920   0.00000  Uiso   1.00
C116   C     0.01650   0.65340   0.52180   0.00000  Uiso   1.00
C117   C     0.03250   0.70140   0.51880   0.00000  Uiso   1.00
H118   H     0.06510   0.70840   0.50170   0.00000  Uiso   1.00
C119   C    -0.00100   0.73970   0.54180   0.00000  Uiso   1.00
C120   C     0.01330   0.79056   0.52870   0.00000  Uiso   1.00
C121   C    -0.04930   0.72830   0.57650   0.00000  Uiso   1.00
H122   H    -0.07190   0.75260   0.59500   0.00000  Uiso   1.00
C123   C    -0.06190   0.68080   0.58220   0.00000  Uiso   1.00
C124   C    -0.03270   0.64240   0.55700   0.00000  Uiso   1.00
H125   H    -0.04400   0.61050   0.56230   0.00000  Uiso   1.00
Cd126  Cd    0.11357   0.53454   0.48094   0.00000  Uiso   1.00
N127   N    -0.01550   0.37730   0.96810   0.00000  Uiso   1.00
O128   O     0.06826   0.48046   0.62280   0.00000  Uiso   1.00
O129   O     0.11490   0.53279   0.73430   0.00000  Uiso   1.00
O130   O     0.10652   0.53142   0.23890   0.00000  Uiso   1.00
O131   O     0.05890   0.47755   0.34020   0.00000  Uiso   1.00
O132   O     0.09675   0.61954   0.49890   0.00000  Uiso   1.00
O133   O     0.03260   0.57091   0.47960   0.00000  Uiso   1.00
O134   O     0.05788   0.80214   0.51800   0.00000  Uiso   1.00
O135   O    -0.02089   0.82323   0.53310   0.00000  Uiso   1.00
C136   C     0.41580   1.00180   0.72690   0.00000  Uiso   1.00
C137   C     0.43420   1.02270   0.85880   0.00000  Uiso   1.00
C138   C     0.42000   1.00500   0.98340   0.00000  Uiso   1.00
H139   H     0.39750   0.97960   0.98720   0.00000  Uiso   1.00
C140   C     0.43830   1.02390   0.10240   0.00000  Uiso   1.00
C141   C     0.42500   1.00290   0.23510   0.00000  Uiso   1.00
C142   C     0.46900   1.06430   0.09450   0.00000  Uiso   1.00
H143   H     0.48010   1.07900   0.17340   0.00000  Uiso   1.00
C144   C     0.48290   1.08250   0.97250   0.00000  Uiso   1.00
C145   C     0.46540   1.06480   0.85440   0.00000  Uiso   1.00
H146   H     0.47340   1.07950   0.77260   0.00000  Uiso   1.00
C147   C     0.55430   1.12610   0.87250   0.00000  Uiso   1.00
H148   H     0.56250   1.10260   0.80870   0.00000  Uiso   1.00
N149   N     0.57830   1.17149   0.89120   0.00000  Uiso   1.00
N150   N     0.55480   1.19650   0.99870   0.00000  Uiso   1.00
C151   C     0.51620   1.16650   0.04640   0.00000  Uiso   1.00
H152   H     0.49500   1.17420   0.11660   0.00000  Uiso   1.00
N153   N     0.61280   0.83240   0.63710   0.00000  Uiso   1.00
C154   C     0.63850   0.87720   0.62830   0.00000  Uiso   1.00
H155   H     0.62670   0.90600   0.59110   0.00000  Uiso   1.00
N156   N     0.68530   0.87040   0.68640   0.00000  Uiso   1.00
N157   N     0.68860   0.82130   0.73100   0.00000  Uiso   1.00
C158   C     0.64380   0.79780   0.70060   0.00000  Uiso   1.00
H159   H     0.63610   0.76550   0.71900   0.00000  Uiso   1.00
C160   C     0.44840   0.88801   0.49920   0.00000  Uiso   1.00
C161   C     0.48350   0.84660   0.52180   0.00000  Uiso   1.00
C162   C     0.46750   0.79860   0.51880   0.00000  Uiso   1.00
H163   H     0.43490   0.79160   0.50170   0.00000  Uiso   1.00
C164   C     0.50100   0.76030   0.54180   0.00000  Uiso   1.00
C165   C     0.48670   0.70944   0.52870   0.00000  Uiso   1.00
C166   C     0.54930   0.77170   0.57650   0.00000  Uiso   1.00
H167   H     0.57190   0.74740   0.59500   0.00000  Uiso   1.00
C168   C     0.56190   0.81920   0.58220   0.00000  Uiso   1.00
C169   C     0.53270   0.85760   0.55700   0.00000  Uiso   1.00
H170   H     0.54400   0.88950   0.56230   0.00000  Uiso   1.00
Cd171  Cd    0.38643   0.96546   0.48094   0.00000  Uiso   1.00
N172   N     0.51550   1.12270   0.96810   0.00000  Uiso   1.00
O173   O     0.43174   1.01954   0.62280   0.00000  Uiso   1.00
O174   O     0.38510   0.96721   0.73430   0.00000  Uiso   1.00
O175   O     0.39348   0.96858   0.23890   0.00000  Uiso   1.00
O176   O     0.44110   1.02245   0.34020   0.00000  Uiso   1.00
O177   O     0.40325   0.88046   0.49890   0.00000  Uiso   1.00
O178   O     0.46740   0.92909   0.47960   0.00000  Uiso   1.00
O179   O     0.44212   0.69786   0.51800   0.00000  Uiso   1.00
O180   O     0.52089   0.67677   0.53310   0.00000  Uiso   1.00
C181   C     0.50180   0.58420   0.27310   0.00000  Uiso   1.00
C182   C     0.52270   0.56580   0.14120   0.00000  Uiso   1.00
C183   C     0.50500   0.58000   0.01660   0.00000  Uiso   1.00
H184   H     0.47960   0.60250   0.01280   0.00000  Uiso   1.00
C185   C     0.52390   0.56170   0.89760   0.00000  Uiso   1.00
C186   C     0.50290   0.57500   0.76490   0.00000  Uiso   1.00
C187   C     0.56430   0.53100   0.90550   0.00000  Uiso   1.00
H188   H     0.57900   0.51990   0.82660   0.00000  Uiso   1.00
C189   C     0.58250   0.51710   0.02750   0.00000  Uiso   1.00
C190   C     0.56480   0.53460   0.14560   0.00000  Uiso   1.00
H191   H     0.57950   0.52660   0.22740   0.00000  Uiso   1.00
C192   C     0.62610   0.44570   0.12750   0.00000  Uiso   1.00
H193   H     0.60260   0.43750   0.19130   0.00000  Uiso   1.00
N194   N     0.67149   0.42170   0.10880   0.00000  Uiso   1.00
N195   N     0.69650   0.44520   0.00130   0.00000  Uiso   1.00
C196   C     0.66650   0.48380   0.95360   0.00000  Uiso   1.00
H197   H     0.67420   0.50500   0.88340   0.00000  Uiso   1.00
N198   N     0.33240   0.38720   0.36290   0.00000  Uiso   1.00
C199   C     0.37720   0.36150   0.37170   0.00000  Uiso   1.00
H200   H     0.40600   0.37330   0.40890   0.00000  Uiso   1.00
N201   N     0.37040   0.31470   0.31360   0.00000  Uiso   1.00
N202   N     0.32130   0.31140   0.26900   0.00000  Uiso   1.00
C203   C     0.29780   0.35620   0.29940   0.00000  Uiso   1.00
H204   H     0.26550   0.36390   0.28100   0.00000  Uiso   1.00
C205   C     0.38801   0.55160   0.50080   0.00000  Uiso   1.00
C206   C     0.34660   0.51650   0.47820   0.00000  Uiso   1.00
C207   C     0.29860   0.53250   0.48120   0.00000  Uiso   1.00
H208   H     0.29160   0.56510   0.49830   0.00000  Uiso   1.00
C209   C     0.26030   0.49900   0.45820   0.00000  Uiso   1.00
C210   C     0.20944   0.51330   0.47130   0.00000  Uiso   1.00
C211   C     0.27170   0.45070   0.42350   0.00000  Uiso   1.00
H212   H     0.24740   0.42810   0.40500   0.00000  Uiso   1.00
C213   C     0.31920   0.43810   0.41780   0.00000  Uiso   1.00
C214   C     0.35760   0.46730   0.44300   0.00000  Uiso   1.00
H215   H     0.38950   0.45600   0.43770   0.00000  Uiso   1.00
Cd216  Cd    0.46546   0.61357   0.51906   0.00000  Uiso   1.00
N217   N     0.62270   0.48450   0.03190   0.00000  Uiso   1.00
O218   O     0.51954   0.56826   0.37720   0.00000  Uiso   1.00
O219   O     0.46721   0.61490   0.26570   0.00000  Uiso   1.00
O220   O     0.46858   0.60652   0.76110   0.00000  Uiso   1.00
O221   O     0.52245   0.55890   0.65980   0.00000  Uiso   1.00
O222   O     0.38046   0.59675   0.50110   0.00000  Uiso   1.00
O223   O     0.42909   0.53260   0.52040   0.00000  Uiso   1.00
O224   O     0.19786   0.55788   0.48200   0.00000  Uiso   1.00
O225   O     0.17677   0.47911   0.46690   0.00000  Uiso   1.00
C226   C    -0.00180   0.91580   0.27310   0.00000  Uiso   1.00
C227   C    -0.02270   0.93420   0.14120   0.00000  Uiso   1.00
C228   C    -0.00500   0.92000   0.01660   0.00000  Uiso   1.00
H229   H     0.02040   0.89750   0.01280   0.00000  Uiso   1.00
C230   C    -0.02390   0.93830   0.89760   0.00000  Uiso   1.00
C231   C    -0.00290   0.92500   0.76490   0.00000  Uiso   1.00
C232   C    -0.06430   0.96900   0.90550   0.00000  Uiso   1.00
H233   H    -0.07900   0.98010   0.82660   0.00000  Uiso   1.00
C234   C    -0.08250   0.98290   0.02750   0.00000  Uiso   1.00
C235   C    -0.06480   0.96540   0.14560   0.00000  Uiso   1.00
H236   H    -0.07950   0.97340   0.22740   0.00000  Uiso   1.00
C237   C    -0.12610   1.05430   0.12750   0.00000  Uiso   1.00
H238   H    -0.10260   1.06250   0.19130   0.00000  Uiso   1.00
N239   N    -0.17149   1.07830   0.10880   0.00000  Uiso   1.00
N240   N    -0.19650   1.05480   0.00130   0.00000  Uiso   1.00
C241   C    -0.16650   1.01620   0.95360   0.00000  Uiso   1.00
H242   H    -0.17420   0.99500   0.88340   0.00000  Uiso   1.00
N243   N     0.16760   1.11280   0.36290   0.00000  Uiso   1.00
C244   C     0.12280   1.13850   0.37170   0.00000  Uiso   1.00
H245   H     0.09400   1.12670   0.40890   0.00000  Uiso   1.00
N246   N     0.12960   1.18530   0.31360   0.00000  Uiso   1.00
N247   N     0.17870   1.18860   0.26900   0.00000  Uiso   1.00
C248   C     0.20220   1.14380   0.29940   0.00000  Uiso   1.00
H249   H     0.23450   1.13610   0.28100   0.00000  Uiso   1.00
C250   C     0.11199   0.94840   0.50080   0.00000  Uiso   1.00
C251   C     0.15340   0.98350   0.47820   0.00000  Uiso   1.00
C252   C     0.20140   0.96750   0.48120   0.00000  Uiso   1.00
H253   H     0.20840   0.93490   0.49830   0.00000  Uiso   1.00
C254   C     0.23970   1.00100   0.45820   0.00000  Uiso   1.00
C255   C     0.29056   0.98670   0.47130   0.00000  Uiso   1.00
C256   C     0.22830   1.04930   0.42350   0.00000  Uiso   1.00
H257   H     0.25260   1.07190   0.40500   0.00000  Uiso   1.00
C258   C     0.18080   1.06190   0.41780   0.00000  Uiso   1.00
C259   C     0.14240   1.03270   0.44300   0.00000  Uiso   1.00
H260   H     0.11050   1.04400   0.43770   0.00000  Uiso   1.00
Cd261  Cd    0.03454   0.88643   0.51906   0.00000  Uiso   1.00
N262   N    -0.12270   1.01550   0.03190   0.00000  Uiso   1.00
O263   O    -0.01954   0.93174   0.37720   0.00000  Uiso   1.00
O264   O     0.03279   0.88510   0.26570   0.00000  Uiso   1.00
O265   O     0.03142   0.89348   0.76110   0.00000  Uiso   1.00
O266   O    -0.02245   0.94110   0.65980   0.00000  Uiso   1.00
O267   O     0.11954   0.90325   0.50110   0.00000  Uiso   1.00
O268   O     0.07091   0.96740   0.52040   0.00000  Uiso   1.00
O269   O     0.30214   0.94212   0.48200   0.00000  Uiso   1.00
O270   O     0.32323   1.02089   0.46690   0.00000  Uiso   1.00
C271   C     0.91580   0.50180   0.27310   0.00000  Uiso   1.00
C272   C     0.93420   0.52270   0.14120   0.00000  Uiso   1.00
C273   C     0.92000   0.50500   0.01660   0.00000  Uiso   1.00
H274   H     0.89750   0.47960   0.01280   0.00000  Uiso   1.00
C275   C     0.93830   0.52390   0.89760   0.00000  Uiso   1.00
C276   C     0.92500   0.50290   0.76490   0.00000  Uiso   1.00
C277   C     0.96900   0.56430   0.90550   0.00000  Uiso   1.00
H278   H     0.98010   0.57900   0.82660   0.00000  Uiso   1.00
C279   C     0.98290   0.58250   0.02750   0.00000  Uiso   1.00
C280   C     0.96540   0.56480   0.14560   0.00000  Uiso   1.00
H281   H     0.97340   0.57950   0.22740   0.00000  Uiso   1.00
C282   C     1.05430   0.62610   0.12750   0.00000  Uiso   1.00
H283   H     1.06250   0.60260   0.19130   0.00000  Uiso   1.00
N284   N     1.07830   0.67149   0.10880   0.00000  Uiso   1.00
N285   N     1.05480   0.69650   0.00130   0.00000  Uiso   1.00
C286   C     1.01620   0.66650   0.95360   0.00000  Uiso   1.00
H287   H     0.99500   0.67420   0.88340   0.00000  Uiso   1.00
N288   N     1.11280   0.33240   0.36290   0.00000  Uiso   1.00
C289   C     1.13850   0.37720   0.37170   0.00000  Uiso   1.00
H290   H     1.12670   0.40600   0.40890   0.00000  Uiso   1.00
N291   N     1.18530   0.37040   0.31360   0.00000  Uiso   1.00
N292   N     1.18860   0.32130   0.26900   0.00000  Uiso   1.00
C293   C     1.14380   0.29780   0.29940   0.00000  Uiso   1.00
H294   H     1.13610   0.26550   0.28100   0.00000  Uiso   1.00
C295   C     0.94840   0.38801   0.50080   0.00000  Uiso   1.00
C296   C     0.98350   0.34660   0.47820   0.00000  Uiso   1.00
C297   C     0.96750   0.29860   0.48120   0.00000  Uiso   1.00
H298   H     0.93490   0.29160   0.49830   0.00000  Uiso   1.00
C299   C     1.00100   0.26030   0.45820   0.00000  Uiso   1.00
C300   C     0.98670   0.20944   0.47130   0.00000  Uiso   1.00
C301   C     1.04930   0.27170   0.42350   0.00000  Uiso   1.00
H302   H     1.07190   0.24740   0.40500   0.00000  Uiso   1.00
C303   C     1.06190   0.31920   0.41780   0.00000  Uiso   1.00
C304   C     1.03270   0.35760   0.44300   0.00000  Uiso   1.00
H305   H     1.04400   0.38950   0.43770   0.00000  Uiso   1.00
Cd306  Cd    0.88643   0.46546   0.51906   0.00000  Uiso   1.00
N307   N     1.01550   0.62270   0.03190   0.00000  Uiso   1.00
O308   O     0.93174   0.51954   0.37720   0.00000  Uiso   1.00
O309   O     0.88510   0.46721   0.26570   0.00000  Uiso   1.00
O310   O     0.89348   0.46858   0.76110   0.00000  Uiso   1.00
O311   O     0.94110   0.52245   0.65980   0.00000  Uiso   1.00
O312   O     0.90325   0.38046   0.50110   0.00000  Uiso   1.00
O313   O     0.96740   0.42909   0.52040   0.00000  Uiso   1.00
O314   O     0.94212   0.19786   0.48200   0.00000  Uiso   1.00
O315   O     1.02089   0.17677   0.46690   0.00000  Uiso   1.00
C316   C     0.58420  -0.00180   0.27310   0.00000  Uiso   1.00
C317   C     0.56580  -0.02270   0.14120   0.00000  Uiso   1.00
C318   C     0.58000  -0.00500   0.01660   0.00000  Uiso   1.00
H319   H     0.60250   0.02040   0.01280   0.00000  Uiso   1.00
C320   C     0.56170  -0.02390   0.89760   0.00000  Uiso   1.00
C321   C     0.57500  -0.00290   0.76490   0.00000  Uiso   1.00
C322   C     0.53100  -0.06430   0.90550   0.00000  Uiso   1.00
H323   H     0.51990  -0.07900   0.82660   0.00000  Uiso   1.00
C324   C     0.51710  -0.08250   0.02750   0.00000  Uiso   1.00
C325   C     0.53460  -0.06480   0.14560   0.00000  Uiso   1.00
H326   H     0.52660  -0.07950   0.22740   0.00000  Uiso   1.00
C327   C     0.44570  -0.12610   0.12750   0.00000  Uiso   1.00
H328   H     0.43750  -0.10260   0.19130   0.00000  Uiso   1.00
N329   N     0.42170  -0.17149   0.10880   0.00000  Uiso   1.00
N330   N     0.44520  -0.19650   0.00130   0.00000  Uiso   1.00
C331   C     0.48380  -0.16650   0.95360   0.00000  Uiso   1.00
H332   H     0.50500  -0.17420   0.88340   0.00000  Uiso   1.00
N333   N     0.38720   0.16760   0.36290   0.00000  Uiso   1.00
C334   C     0.36150   0.12280   0.37170   0.00000  Uiso   1.00
H335   H     0.37330   0.09400   0.40890   0.00000  Uiso   1.00
N336   N     0.31470   0.12960   0.31360   0.00000  Uiso   1.00
N337   N     0.31140   0.17870   0.26900   0.00000  Uiso   1.00
C338   C     0.35620   0.20220   0.29940   0.00000  Uiso   1.00
H339   H     0.36390   0.23450   0.28100   0.00000  Uiso   1.00
C340   C     0.55160   0.11199   0.50080   0.00000  Uiso   1.00
C341   C     0.51650   0.15340   0.47820   0.00000  Uiso   1.00
C342   C     0.53250   0.20140   0.48120   0.00000  Uiso   1.00
H343   H     0.56510   0.20840   0.49830   0.00000  Uiso   1.00
C344   C     0.49900   0.23970   0.45820   0.00000  Uiso   1.00
C345   C     0.51330   0.29056   0.47130   0.00000  Uiso   1.00
C346   C     0.45070   0.22830   0.42350   0.00000  Uiso   1.00
H347   H     0.42810   0.25260   0.40500   0.00000  Uiso   1.00
C348   C     0.43810   0.18080   0.41780   0.00000  Uiso   1.00
C349   C     0.46730   0.14240   0.44300   0.00000  Uiso   1.00
H350   H     0.45600   0.11050   0.43770   0.00000  Uiso   1.00
Cd351  Cd    0.61357   0.03454   0.51906   0.00000  Uiso   1.00
N352   N     0.48450  -0.12270   0.03190   0.00000  Uiso   1.00
O353   O     0.56826  -0.01954   0.37720   0.00000  Uiso   1.00
O354   O     0.61490   0.03279   0.26570   0.00000  Uiso   1.00
O355   O     0.60652   0.03142   0.76110   0.00000  Uiso   1.00
O356   O     0.55890  -0.02245   0.65980   0.00000  Uiso   1.00
O357   O     0.59675   0.11954   0.50110   0.00000  Uiso   1.00
O358   O     0.53260   0.07091   0.52040   0.00000  Uiso   1.00
O359   O     0.55788   0.30214   0.48200   0.00000  Uiso   1.00
O360   O     0.47911   0.32323   0.46690   0.00000  Uiso   1.00
loop_
_geom_bond_atom_site_label_1
_geom_bond_atom_site_label_2
_geom_bond_distance
_geom_bond_site_symmetry_2
_ccdc_geom_bond_type
C1     C2      1.512   .     S
C1     O38     1.220   .     S
C1     O39     1.271   .     S
C2     C3      1.381   .     S
C2     C10     1.438   .     S
C3     H4      0.931   .     S
C3     C5      1.381   1_556 S
C5     C3      1.381   1_554 S
C5     C6      1.480   .     S
C5     C7      1.394   .     S
C6     O40     1.279   .     S
C6     O41     1.251   .     S
C7     H8      0.930   .     S
C7     C9      1.361   1_554 S
C9     C7      1.361   1_556 S
C9     N37     1.420   .     S
C9     C10     1.354   .     S
C10    H11     0.931   .     S
C12    H13     0.930   .     S
C12    N14     1.420   .     S
C12    N37     1.427   .     S
N14    N15     1.421   .     S
N15    C16     1.422   1_556 S
C16    N15     1.422   1_554 S
C16    H17     0.930   .     S
C16    N37     1.430   1_554 S
N18    C19     1.419   .     S
N18    C23     1.421   .     S
N18    C33     1.541   .     S
C19    H20     0.930   .     S
C19    N21     1.419   .     S
N21    N22     1.420   .     S
N22    C23     1.420   .     S
C23    H24     0.929   .     S
C25    C26     1.506   .     S
C25    O42     1.256   .     S
C25    O43     1.257   .     S
C26    C27     1.388   .     S
C26    C34     1.426   .     S
C27    H28     0.930   .     S
C27    C29     1.414   .     S
C29    C30     1.455   .     S
C29    C31     1.404   .     S
C30    O44     1.268   .     S
C30    O45     1.298   .     S
C31    H32     0.928   .     S
C31    C33     1.349   .     S
C33    C34     1.347   .     S
C34    H35     0.930   .     S
Cd36   O38     2.391   .     S
Cd36   O40     2.405   .     S
Cd36   O41     2.575   .     S
Cd36   O359    2.399   .     S
Cd36   O360    2.310   .     S
Cd36   O39     2.508   .     S
Cd36   O42     2.383   .     S
Cd36   O43     2.435   .     S
N37    C16     1.430   1_556 S
O44    Cd306   2.399   .     S
O45    Cd306   2.310   .     S
C46    C47     1.512   .     S
C46    O83     1.220   .     S
C46    O84     1.271   .     S
C47    C48     1.381   .     S
C47    C55     1.438   .     S
C48    H49     0.931   .     S
C48    C50     1.381   1_556 S
C50    C48     1.381   1_554 S
C50    C51     1.480   .     S
C50    C52     1.394   .     S
C51    O85     1.279   .     S
C51    O86     1.251   .     S
C52    H53     0.930   .     S
C52    C54     1.361   1_554 S
C54    C52     1.361   1_556 S
C54    N82     1.420   .     S
C54    C55     1.354   .     S
C55    H56     0.931   .     S
C57    H58     0.930   .     S
C57    N59     1.420   .     S
C57    N82     1.427   .     S
N59    N60     1.421   .     S
N60    C61     1.422   1_556 S
C61    N60     1.422   1_554 S
C61    H62     0.930   .     S
C61    N82     1.430   1_554 S
N63    C64     1.419   .     S
N63    C68     1.421   .     S
N63    C78     1.541   .     S
C64    H65     0.930   .     S
C64    N66     1.419   .     S
N66    N67     1.420   .     S
N67    C68     1.420   .     S
C68    H69     0.929   .     S
C70    C71     1.506   .     S
C70    O87     1.256   .     S
C70    O88     1.257   .     S
C71    C72     1.388   .     S
C71    C79     1.426   .     S
C72    H73     0.930   .     S
C72    C74     1.414   .     S
C74    C75     1.455   .     S
C74    C76     1.404   .     S
C75    O89     1.268   .     S
C75    O90     1.298   .     S
C76    H77     0.928   .     S
C76    C78     1.349   .     S
C78    C79     1.347   .     S
C79    H80     0.930   .     S
Cd81   O83     2.391   .     S
Cd81   O85     2.405   .     S
Cd81   O86     2.575   .     S
Cd81   O314    2.399   .     S
Cd81   O315    2.310   .     S
Cd81   O84     2.508   .     S
Cd81   O87     2.383   .     S
Cd81   O88     2.435   .     S
N82    C61     1.430   1_556 S
O89    Cd351   2.399   .     S
O90    Cd351   2.310   .     S
C91    C92     1.512   .     S
C91    O128    1.220   .     S
C91    O129    1.271   .     S
C92    C93     1.381   .     S
C92    C100    1.438   .     S
C93    H94     0.931   .     S
C93    C95     1.381   1_556 S
C95    C93     1.381   1_554 S
C95    C96     1.480   .     S
C95    C97     1.394   .     S
C96    O130    1.279   .     S
C96    O131    1.251   .     S
C97    H98     0.930   .     S
C97    C99     1.361   1_554 S
C99    C97     1.361   1_556 S
C99    N127    1.420   .     S
C99    C100    1.354   .     S
C100   H101    0.931   .     S
C102   H103    0.930   .     S
C102   N104    1.420   .     S
C102   N127    1.427   .     S
N104   N105    1.421   .     S
N105   C106    1.422   1_556 S
C106   N105    1.422   1_554 S
C106   H107    0.930   .     S
C106   N127    1.430   1_554 S
N108   C109    1.419   .     S
N108   C113    1.421   .     S
N108   C123    1.541   .     S
C109   H110    0.930   .     S
C109   N111    1.419   .     S
N111   N112    1.420   .     S
N112   C113    1.420   .     S
C113   H114    0.929   .     S
C115   C116    1.506   .     S
C115   O132    1.256   .     S
C115   O133    1.257   .     S
C116   C117    1.388   .     S
C116   C124    1.426   .     S
C117   H118    0.930   .     S
C117   C119    1.414   .     S
C119   C120    1.455   .     S
C119   C121    1.404   .     S
C120   O134    1.268   .     S
C120   O135    1.298   .     S
C121   H122    0.928   .     S
C121   C123    1.349   .     S
C123   C124    1.347   .     S
C124   H125    0.930   .     S
Cd126  O128    2.391   .     S
Cd126  O130    2.405   .     S
Cd126  O131    2.575   .     S
Cd126  O224    2.399   .     S
Cd126  O225    2.310   .     S
Cd126  O129    2.508   .     S
Cd126  O132    2.383   .     S
Cd126  O133    2.435   .     S
N127   C106    1.430   1_556 S
O134   Cd261   2.399   .     S
O135   Cd261   2.310   .     S
C136   C137    1.512   .     S
C136   O173    1.220   .     S
C136   O174    1.271   .     S
C137   C138    1.381   .     S
C137   C145    1.438   .     S
C138   H139    0.931   .     S
C138   C140    1.381   1_556 S
C140   C138    1.381   1_554 S
C140   C141    1.480   .     S
C140   C142    1.394   .     S
C141   O175    1.279   .     S
C141   O176    1.251   .     S
C142   H143    0.930   .     S
C142   C144    1.361   1_554 S
C144   C142    1.361   1_556 S
C144   N172    1.420   .     S
C144   C145    1.354   .     S
C145   H146    0.931   .     S
C147   H148    0.930   .     S
C147   N149    1.420   .     S
C147   N172    1.427   .     S
N149   N150    1.421   .     S
N150   C151    1.422   1_556 S
C151   N150    1.422   1_554 S
C151   H152    0.930   .     S
C151   N172    1.430   1_554 S
N153   C154    1.419   .     S
N153   C158    1.421   .     S
N153   C168    1.541   .     S
C154   H155    0.930   .     S
C154   N156    1.419   .     S
N156   N157    1.420   .     S
N157   C158    1.420   .     S
C158   H159    0.929   .     S
C160   C161    1.506   .     S
C160   O177    1.256   .     S
C160   O178    1.257   .     S
C161   C162    1.388   .     S
C161   C169    1.426   .     S
C162   H163    0.930   .     S
C162   C164    1.414   .     S
C164   C165    1.455   .     S
C164   C166    1.404   .     S
C165   O179    1.268   .     S
C165   O180    1.298   .     S
C166   H167    0.928   .     S
C166   C168    1.349   .     S
C168   C169    1.347   .     S
C169   H170    0.930   .     S
Cd171  O173    2.391   .     S
Cd171  O175    2.405   .     S
Cd171  O176    2.575   .     S
Cd171  O269    2.399   .     S
Cd171  O270    2.310   .     S
Cd171  O174    2.508   .     S
Cd171  O177    2.383   .     S
Cd171  O178    2.435   .     S
N172   C151    1.430   1_556 S
O179   Cd216   2.399   .     S
O180   Cd216   2.310   .     S
C181   C182    1.512   .     S
C181   O218    1.220   .     S
C181   O219    1.271   .     S
C182   C183    1.381   .     S
C182   C190    1.438   .     S
C183   H184    0.931   .     S
C183   C185    1.381   1_554 S
C185   C183    1.381   1_556 S
C185   C186    1.480   .     S
C185   C187    1.394   .     S
C186   O220    1.279   .     S
C186   O221    1.251   .     S
C187   H188    0.930   .     S
C187   C189    1.361   1_556 S
C189   C187    1.361   1_554 S
C189   N217    1.420   .     S
C189   C190    1.354   .     S
C190   H191    0.931   .     S
C192   H193    0.930   .     S
C192   N194    1.420   .     S
C192   N217    1.427   .     S
N194   N195    1.421   .     S
N195   C196    1.422   1_554 S
C196   N195    1.422   1_556 S
C196   H197    0.930   .     S
C196   N217    1.430   1_556 S
N198   C199    1.419   .     S
N198   C203    1.421   .     S
N198   C213    1.541   .     S
C199   H200    0.930   .     S
C199   N201    1.419   .     S
N201   N202    1.420   .     S
N202   C203    1.420   .     S
C203   H204    0.929   .     S
C205   C206    1.506   .     S
C205   O222    1.256   .     S
C205   O223    1.257   .     S
C206   C207    1.388   .     S
C206   C214    1.426   .     S
C207   H208    0.930   .     S
C207   C209    1.414   .     S
C209   C210    1.455   .     S
C209   C211    1.404   .     S
C210   O224    1.268   .     S
C210   O225    1.298   .     S
C211   H212    0.928   .     S
C211   C213    1.349   .     S
C213   C214    1.347   .     S
C214   H215    0.930   .     S
Cd216  O218    2.391   .     S
Cd216  O220    2.405   .     S
Cd216  O221    2.575   .     S
Cd216  O219    2.508   .     S
Cd216  O222    2.383   .     S
Cd216  O223    2.435   .     S
N217   C196    1.430   1_554 S
C226   C227    1.512   .     S
C226   O263    1.220   .     S
C226   O264    1.271   .     S
C227   C228    1.381   .     S
C227   C235    1.438   .     S
C228   H229    0.931   .     S
C228   C230    1.381   1_554 S
C230   C228    1.381   1_556 S
C230   C231    1.480   .     S
C230   C232    1.394   .     S
C231   O265    1.279   .     S
C231   O266    1.251   .     S
C232   H233    0.930   .     S
C232   C234    1.361   1_556 S
C234   C232    1.361   1_554 S
C234   N262    1.420   .     S
C234   C235    1.354   .     S
C235   H236    0.931   .     S
C237   H238    0.930   .     S
C237   N239    1.420   .     S
C237   N262    1.427   .     S
N239   N240    1.421   .     S
N240   C241    1.422   1_554 S
C241   N240    1.422   1_556 S
C241   H242    0.930   .     S
C241   N262    1.430   1_556 S
N243   C244    1.419   .     S
N243   C248    1.421   .     S
N243   C258    1.541   .     S
C244   H245    0.930   .     S
C244   N246    1.419   .     S
N246   N247    1.420   .     S
N247   C248    1.420   .     S
C248   H249    0.929   .     S
C250   C251    1.506   .     S
C250   O267    1.256   .     S
C250   O268    1.257   .     S
C251   C252    1.388   .     S
C251   C259    1.426   .     S
C252   H253    0.930   .     S
C252   C254    1.414   .     S
C254   C255    1.455   .     S
C254   C256    1.404   .     S
C255   O269    1.268   .     S
C255   O270    1.298   .     S
C256   H257    0.928   .     S
C256   C258    1.349   .     S
C258   C259    1.347   .     S
C259   H260    0.930   .     S
Cd261  O263    2.391   .     S
Cd261  O265    2.405   .     S
Cd261  O266    2.575   .     S
Cd261  O264    2.508   .     S
Cd261  O267    2.383   .     S
Cd261  O268    2.435   .     S
N262   C241    1.430   1_554 S
C271   C272    1.512   .     S
C271   O308    1.220   .     S
C271   O309    1.271   .     S
C272   C273    1.381   .     S
C272   C280    1.438   .     S
C273   H274    0.931   .     S
C273   C275    1.381   1_554 S
C275   C273    1.381   1_556 S
C275   C276    1.480   .     S
C275   C277    1.394   .     S
C276   O310    1.279   .     S
C276   O311    1.251   .     S
C277   H278    0.930   .     S
C277   C279    1.361   1_556 S
C279   C277    1.361   1_554 S
C279   N307    1.420   .     S
C279   C280    1.354   .     S
C280   H281    0.931   .     S
C282   H283    0.930   .     S
C282   N284    1.420   .     S
C282   N307    1.427   .     S
N284   N285    1.421   .     S
N285   C286    1.422   1_554 S
C286   N285    1.422   1_556 S
C286   H287    0.930   .     S
C286   N307    1.430   1_556 S
N288   C289    1.419   .     S
N288   C293    1.421   .     S
N288   C303    1.541   .     S
C289   H290    0.930   .     S
C289   N291    1.419   .     S
N291   N292    1.420   .     S
N292   C293    1.420   .     S
C293   H294    0.929   .     S
C295   C296    1.506   .     S
C295   O312    1.256   .     S
C295   O313    1.257   .     S
C296   C297    1.388   .     S
C296   C304    1.426   .     S
C297   H298    0.930   .     S
C297   C299    1.414   .     S
C299   C300    1.455   .     S
C299   C301    1.404   .     S
C300   O314    1.268   .     S
C300   O315    1.298   .     S
C301   H302    0.928   .     S
C301   C303    1.349   .     S
C303   C304    1.347   .     S
C304   H305    0.930   .     S
Cd306  O308    2.391   .     S
Cd306  O310    2.405   .     S
Cd306  O311    2.575   .     S
Cd306  O309    2.508   .     S
Cd306  O312    2.383   .     S
Cd306  O313    2.435   .     S
N307   C286    1.430   1_554 S
C316   C317    1.512   .     S
C316   O353    1.220   .     S
C316   O354    1.271   .     S
C317   C318    1.381   .     S
C317   C325    1.438   .     S
C318   H319    0.931   .     S
C318   C320    1.381   1_554 S
C320   C318    1.381   1_556 S
C320   C321    1.480   .     S
C320   C322    1.394   .     S
C321   O355    1.279   .     S
C321   O356    1.251   .     S
C322   H323    0.930   .     S
C322   C324    1.361   1_556 S
C324   C322    1.361   1_554 S
C324   N352    1.420   .     S
C324   C325    1.354   .     S
C325   H326    0.931   .     S
C327   H328    0.930   .     S
C327   N329    1.420   .     S
C327   N352    1.427   .     S
N329   N330    1.421   .     S
N330   C331    1.422   1_554 S
C331   N330    1.422   1_556 S
C331   H332    0.930   .     S
C331   N352    1.430   1_556 S
N333   C334    1.419   .     S
N333   C338    1.421   .     S
N333   C348    1.541   .     S
C334   H335    0.930   .     S
C334   N336    1.419   .     S
N336   N337    1.420   .     S
N337   C338    1.420   .     S
C338   H339    0.929   .     S
C340   C341    1.506   .     S
C340   O357    1.256   .     S
C340   O358    1.257   .     S
C341   C342    1.388   .     S
C341   C349    1.426   .     S
C342   H343    0.930   .     S
C342   C344    1.414   .     S
C344   C345    1.455   .     S
C344   C346    1.404   .     S
C345   O359    1.268   .     S
C345   O360    1.298   .     S
C346   H347    0.928   .     S
C346   C348    1.349   .     S
C348   C349    1.347   .     S
C349   H350    0.930   .     S
Cd351  O353    2.391   .     S
Cd351  O355    2.405   .     S
Cd351  O356    2.575   .     S
Cd351  O354    2.508   .     S
Cd351  O357    2.383   .     S
Cd351  O358    2.435   .     S
N352   C331    1.430   1_554 S
