data_RAXXIZ_FSR
_audit_creation_date              2024-06-11
_audit_creation_method            'Materials Studio'
_symmetry_space_group_name_H-M    'P1'
_symmetry_Int_Tables_number       1
_symmetry_cell_setting            triclinic
loop_
_symmetry_equiv_pos_as_xyz
  x,y,z
_cell_length_a                    26.6386
_cell_length_b                    26.6386
_cell_length_c                    9.8419
_cell_angle_alpha                 90.0000
_cell_angle_beta                  90.0000
_cell_angle_gamma                 90.0000
loop_
_atom_site_label
_atom_site_type_symbol
_atom_site_fract_x
_atom_site_fract_y
_atom_site_fract_z
_atom_site_U_iso_or_equiv
_atom_site_adp_type
_atom_site_occupancy
C1     C     0.91823  -0.00088   0.71830   0.00000  Uiso   1.00
C2     C     0.93351  -0.02107   0.58470   0.00000  Uiso   1.00
C3     C     0.91620  -0.00020   0.46420   0.00000  Uiso   1.00
H4     H     0.89500   0.02760   0.46540   0.00000  Uiso   1.00
C5     C     0.93080  -0.02150   0.34210   0.00000  Uiso   1.00
C6     C     0.91180  -0.00230   0.21170   0.00000  Uiso   1.00
C7     C     0.96300  -0.06110   0.33660   0.00000  Uiso   1.00
H8     H     0.97250  -0.07460   0.25340   0.00000  Uiso   1.00
C9     C     0.98120  -0.08070   0.45520   0.00000  Uiso   1.00
C10    C     0.96650  -0.06140   0.57990   0.00000  Uiso   1.00
H11    H     0.97870  -0.07540   0.65990   0.00000  Uiso   1.00
C12    C     1.02230  -0.15330   0.34600   0.00000  Uiso   1.00
H13    H     1.00230  -0.15460   0.26870   0.00000  Uiso   1.00
N14    N     1.06390  -0.18450   0.37800   0.00000  Uiso   1.00
N15    N     1.08310  -0.16920   0.50620   0.00000  Uiso   1.00
C16    C     1.05320  -0.12859   0.55340   0.00000  Uiso   1.00
H17    H     1.05690  -0.11100   0.63440   0.00000  Uiso   1.00
N18    N     1.11020   0.16985   0.17210   0.00000  Uiso   1.00
C19    C     1.13641   0.12357   0.16240   0.00000  Uiso   1.00
H20    H     1.12520   0.09490   0.11790   0.00000  Uiso   1.00
N21    N     1.18271   0.12880   0.23250   0.00000  Uiso   1.00
N22    N     1.18511   0.17833   0.28550   0.00000  Uiso   1.00
C23    C     1.14029   0.20369   0.24820   0.00000  Uiso   1.00
H24    H     1.13210   0.23670   0.26980   0.00000  Uiso   1.00
C25    C     0.94850   0.11020   0.99040   0.00000  Uiso   1.00
C26    C     0.98290   0.15230   0.02750   0.00000  Uiso   1.00
C27    C     0.96710   0.20200   0.02210   0.00000  Uiso   1.00
H28    H     0.93460   0.20980   0.99430   0.00000  Uiso   1.00
C29    C     1.00000   0.23960   0.05860   0.00000  Uiso   1.00
C30    C     0.98560   0.29430   0.05360   0.00000  Uiso   1.00
C31    C     1.04730   0.22810   0.10770   0.00000  Uiso   1.00
H32    H     1.06880   0.25370   0.13510   0.00000  Uiso   1.00
C33    C     1.06270   0.17880   0.11610   0.00000  Uiso   1.00
C34    C     1.03110   0.14000   0.07180   0.00000  Uiso   1.00
H35    H     1.04200   0.10690   0.07190   0.00000  Uiso   1.00
In36   In    0.89096   0.03246   0.95914   0.00000  Uiso   1.00
N37    N     1.01810  -0.12080   0.45470   0.00000  Uiso   1.00
O38    O     0.93024  -0.02476   0.82270   0.00000  Uiso   1.00
O39    O     0.89403   0.04009   0.72790   0.00000  Uiso   1.00
O40    O     0.89302   0.03900   0.20370   0.00000  Uiso   1.00
O41    O     0.91560  -0.02680   0.10490   0.00000  Uiso   1.00
O42    O     0.90243   0.11796   0.97340   0.00000  Uiso   1.00
O43    O     0.96594   0.06647   0.98050   0.00000  Uiso   1.00
O44    O     1.01920   0.32680   0.07650   0.00000  Uiso   1.00
O45    O     0.94292   0.30749   0.02430   0.00000  Uiso   1.00
C46    C     0.58177   0.50088   0.71830   0.00000  Uiso   1.00
C47    C     0.56649   0.52107   0.58470   0.00000  Uiso   1.00
C48    C     0.58380   0.50020   0.46420   0.00000  Uiso   1.00
H49    H     0.60500   0.47240   0.46540   0.00000  Uiso   1.00
C50    C     0.56920   0.52150   0.34210   0.00000  Uiso   1.00
C51    C     0.58820   0.50230   0.21170   0.00000  Uiso   1.00
C52    C     0.53700   0.56110   0.33660   0.00000  Uiso   1.00
H53    H     0.52750   0.57460   0.25340   0.00000  Uiso   1.00
C54    C     0.51880   0.58070   0.45520   0.00000  Uiso   1.00
C55    C     0.53350   0.56140   0.57990   0.00000  Uiso   1.00
H56    H     0.52130   0.57540   0.65990   0.00000  Uiso   1.00
C57    C     0.47770   0.65330   0.34600   0.00000  Uiso   1.00
H58    H     0.49770   0.65460   0.26870   0.00000  Uiso   1.00
N59    N     0.43610   0.68450   0.37800   0.00000  Uiso   1.00
N60    N     0.41690   0.66920   0.50620   0.00000  Uiso   1.00
C61    C     0.44680   0.62859   0.55340   0.00000  Uiso   1.00
H62    H     0.44310   0.61100   0.63440   0.00000  Uiso   1.00
N63    N     0.38980   0.33015   0.17210   0.00000  Uiso   1.00
C64    C     0.36359   0.37643   0.16240   0.00000  Uiso   1.00
H65    H     0.37480   0.40510   0.11790   0.00000  Uiso   1.00
N66    N     0.31729   0.37120   0.23250   0.00000  Uiso   1.00
N67    N     0.31489   0.32167   0.28550   0.00000  Uiso   1.00
C68    C     0.35971   0.29631   0.24820   0.00000  Uiso   1.00
H69    H     0.36790   0.26330   0.26980   0.00000  Uiso   1.00
C70    C     0.55150   0.38980   0.99040   0.00000  Uiso   1.00
C71    C     0.51710   0.34770   0.02750   0.00000  Uiso   1.00
C72    C     0.53290   0.29800   0.02210   0.00000  Uiso   1.00
H73    H     0.56540   0.29020   0.99430   0.00000  Uiso   1.00
C74    C     0.50000   0.26040   0.05860   0.00000  Uiso   1.00
C75    C     0.51440   0.20570   0.05360   0.00000  Uiso   1.00
C76    C     0.45270   0.27190   0.10770   0.00000  Uiso   1.00
H77    H     0.43120   0.24630   0.13510   0.00000  Uiso   1.00
C78    C     0.43730   0.32120   0.11610   0.00000  Uiso   1.00
C79    C     0.46890   0.36000   0.07180   0.00000  Uiso   1.00
H80    H     0.45800   0.39310   0.07190   0.00000  Uiso   1.00
In81   In    0.60904   0.46754   0.95914   0.00000  Uiso   1.00
N82    N     0.48190   0.62080   0.45470   0.00000  Uiso   1.00
O83    O     0.56976   0.52476   0.82270   0.00000  Uiso   1.00
O84    O     0.60597   0.45991   0.72790   0.00000  Uiso   1.00
O85    O     0.60698   0.46100   0.20370   0.00000  Uiso   1.00
O86    O     0.58440   0.52680   0.10490   0.00000  Uiso   1.00
O87    O     0.59757   0.38204   0.97340   0.00000  Uiso   1.00
O88    O     0.53406   0.43353   0.98050   0.00000  Uiso   1.00
O89    O     0.48080   0.17320   0.07650   0.00000  Uiso   1.00
O90    O     0.55708   0.19251   0.02430   0.00000  Uiso   1.00
C91    C     0.50088   0.91823   0.71830   0.00000  Uiso   1.00
C92    C     0.52107   0.93351   0.58470   0.00000  Uiso   1.00
C93    C     0.50020   0.91620   0.46420   0.00000  Uiso   1.00
H94    H     0.47240   0.89500   0.46540   0.00000  Uiso   1.00
C95    C     0.52150   0.93080   0.34210   0.00000  Uiso   1.00
C96    C     0.50230   0.91180   0.21170   0.00000  Uiso   1.00
C97    C     0.56110   0.96300   0.33660   0.00000  Uiso   1.00
H98    H     0.57460   0.97250   0.25340   0.00000  Uiso   1.00
C99    C     0.58070   0.98120   0.45520   0.00000  Uiso   1.00
C100   C     0.56140   0.96650   0.57990   0.00000  Uiso   1.00
H101   H     0.57540   0.97870   0.65990   0.00000  Uiso   1.00
C102   C     0.65330   1.02230   0.34600   0.00000  Uiso   1.00
H103   H     0.65460   1.00230   0.26870   0.00000  Uiso   1.00
N104   N     0.68450   1.06390   0.37800   0.00000  Uiso   1.00
N105   N     0.66920   1.08310   0.50620   0.00000  Uiso   1.00
C106   C     0.62859   1.05320   0.55340   0.00000  Uiso   1.00
H107   H     0.61100   1.05690   0.63440   0.00000  Uiso   1.00
N108   N     0.33015   1.11020   0.17210   0.00000  Uiso   1.00
C109   C     0.37643   1.13641   0.16240   0.00000  Uiso   1.00
H110   H     0.40510   1.12520   0.11790   0.00000  Uiso   1.00
N111   N     0.37120   1.18271   0.23250   0.00000  Uiso   1.00
N112   N     0.32167   1.18511   0.28550   0.00000  Uiso   1.00
C113   C     0.29631   1.14029   0.24820   0.00000  Uiso   1.00
H114   H     0.26330   1.13210   0.26980   0.00000  Uiso   1.00
C115   C     0.38980   0.94850   0.99040   0.00000  Uiso   1.00
C116   C     0.34770   0.98290   0.02750   0.00000  Uiso   1.00
C117   C     0.29800   0.96710   0.02210   0.00000  Uiso   1.00
H118   H     0.29020   0.93460   0.99430   0.00000  Uiso   1.00
C119   C     0.26040   1.00000   0.05860   0.00000  Uiso   1.00
C120   C     0.20570   0.98560   0.05360   0.00000  Uiso   1.00
C121   C     0.27190   1.04730   0.10770   0.00000  Uiso   1.00
H122   H     0.24630   1.06880   0.13510   0.00000  Uiso   1.00
C123   C     0.32120   1.06270   0.11610   0.00000  Uiso   1.00
C124   C     0.36000   1.03110   0.07180   0.00000  Uiso   1.00
H125   H     0.39310   1.04200   0.07190   0.00000  Uiso   1.00
In126  In    0.46754   0.89096   0.95914   0.00000  Uiso   1.00
N127   N     0.62080   1.01810   0.45470   0.00000  Uiso   1.00
O128   O     0.52476   0.93024   0.82270   0.00000  Uiso   1.00
O129   O     0.45991   0.89403   0.72790   0.00000  Uiso   1.00
O130   O     0.46100   0.89302   0.20370   0.00000  Uiso   1.00
O131   O     0.52680   0.91560   0.10490   0.00000  Uiso   1.00
O132   O     0.38204   0.90243   0.97340   0.00000  Uiso   1.00
O133   O     0.43353   0.96594   0.98050   0.00000  Uiso   1.00
O134   O     0.17320   1.01920   0.07650   0.00000  Uiso   1.00
O135   O     0.19251   0.94292   0.02430   0.00000  Uiso   1.00
C136   C    -0.00088   0.58177   0.71830   0.00000  Uiso   1.00
C137   C    -0.02107   0.56649   0.58470   0.00000  Uiso   1.00
C138   C    -0.00020   0.58380   0.46420   0.00000  Uiso   1.00
H139   H     0.02760   0.60500   0.46540   0.00000  Uiso   1.00
C140   C    -0.02150   0.56920   0.34210   0.00000  Uiso   1.00
C141   C    -0.00230   0.58820   0.21170   0.00000  Uiso   1.00
C142   C    -0.06110   0.53700   0.33660   0.00000  Uiso   1.00
H143   H    -0.07460   0.52750   0.25340   0.00000  Uiso   1.00
C144   C    -0.08070   0.51880   0.45520   0.00000  Uiso   1.00
C145   C    -0.06140   0.53350   0.57990   0.00000  Uiso   1.00
H146   H    -0.07540   0.52130   0.65990   0.00000  Uiso   1.00
C147   C    -0.15330   0.47770   0.34600   0.00000  Uiso   1.00
H148   H    -0.15460   0.49770   0.26870   0.00000  Uiso   1.00
N149   N    -0.18450   0.43610   0.37800   0.00000  Uiso   1.00
N150   N    -0.16920   0.41690   0.50620   0.00000  Uiso   1.00
C151   C    -0.12859   0.44680   0.55340   0.00000  Uiso   1.00
H152   H    -0.11100   0.44310   0.63440   0.00000  Uiso   1.00
N153   N     0.16985   0.38980   0.17210   0.00000  Uiso   1.00
C154   C     0.12357   0.36359   0.16240   0.00000  Uiso   1.00
H155   H     0.09490   0.37480   0.11790   0.00000  Uiso   1.00
N156   N     0.12880   0.31729   0.23250   0.00000  Uiso   1.00
N157   N     0.17833   0.31489   0.28550   0.00000  Uiso   1.00
C158   C     0.20369   0.35971   0.24820   0.00000  Uiso   1.00
H159   H     0.23670   0.36790   0.26980   0.00000  Uiso   1.00
C160   C     0.11020   0.55150   0.99040   0.00000  Uiso   1.00
C161   C     0.15230   0.51710   0.02750   0.00000  Uiso   1.00
C162   C     0.20200   0.53290   0.02210   0.00000  Uiso   1.00
H163   H     0.20980   0.56540   0.99430   0.00000  Uiso   1.00
C164   C     0.23960   0.50000   0.05860   0.00000  Uiso   1.00
C165   C     0.29430   0.51440   0.05360   0.00000  Uiso   1.00
C166   C     0.22810   0.45270   0.10770   0.00000  Uiso   1.00
H167   H     0.25370   0.43120   0.13510   0.00000  Uiso   1.00
C168   C     0.17880   0.43730   0.11610   0.00000  Uiso   1.00
C169   C     0.14000   0.46890   0.07180   0.00000  Uiso   1.00
H170   H     0.10690   0.45800   0.07190   0.00000  Uiso   1.00
In171  In    0.03246   0.60904   0.95914   0.00000  Uiso   1.00
N172   N    -0.12080   0.48190   0.45470   0.00000  Uiso   1.00
O173   O    -0.02476   0.56976   0.82270   0.00000  Uiso   1.00
O174   O     0.04009   0.60597   0.72790   0.00000  Uiso   1.00
O175   O     0.03900   0.60698   0.20370   0.00000  Uiso   1.00
O176   O    -0.02680   0.58440   0.10490   0.00000  Uiso   1.00
O177   O     0.11796   0.59757   0.97340   0.00000  Uiso   1.00
O178   O     0.06647   0.53406   0.98050   0.00000  Uiso   1.00
O179   O     0.32680   0.48080   0.07650   0.00000  Uiso   1.00
O180   O     0.30749   0.55708   0.02430   0.00000  Uiso   1.00
C181   C     0.08177   1.00088   0.28170   0.00000  Uiso   1.00
C182   C     0.06649   1.02107   0.41530   0.00000  Uiso   1.00
C183   C     0.08380   1.00020   0.53580   0.00000  Uiso   1.00
H184   H     0.10500   0.97240   0.53460   0.00000  Uiso   1.00
C185   C     0.06920   1.02150   0.65790   0.00000  Uiso   1.00
C186   C     0.08820   1.00230   0.78830   0.00000  Uiso   1.00
C187   C     0.03700   1.06110   0.66340   0.00000  Uiso   1.00
H188   H     0.02750   1.07460   0.74660   0.00000  Uiso   1.00
C189   C     0.01880   1.08070   0.54480   0.00000  Uiso   1.00
C190   C     0.03350   1.06140   0.42010   0.00000  Uiso   1.00
H191   H     0.02130   1.07540   0.34010   0.00000  Uiso   1.00
C192   C    -0.02230   1.15330   0.65400   0.00000  Uiso   1.00
H193   H    -0.00230   1.15460   0.73130   0.00000  Uiso   1.00
N194   N    -0.06390   1.18450   0.62200   0.00000  Uiso   1.00
N195   N    -0.08310   1.16920   0.49380   0.00000  Uiso   1.00
C196   C    -0.05320   1.12859   0.44660   0.00000  Uiso   1.00
H197   H    -0.05690   1.11100   0.36560   0.00000  Uiso   1.00
N198   N    -0.11020   0.83015   0.82790   0.00000  Uiso   1.00
C199   C    -0.13641   0.87643   0.83760   0.00000  Uiso   1.00
H200   H    -0.12520   0.90510   0.88210   0.00000  Uiso   1.00
N201   N    -0.18271   0.87120   0.76750   0.00000  Uiso   1.00
N202   N    -0.18511   0.82167   0.71450   0.00000  Uiso   1.00
C203   C    -0.14029   0.79631   0.75180   0.00000  Uiso   1.00
H204   H    -0.13210   0.76330   0.73020   0.00000  Uiso   1.00
C205   C     0.05150   0.88980   0.00960   0.00000  Uiso   1.00
C206   C     0.01710   0.84770   0.97250   0.00000  Uiso   1.00
C207   C     0.03290   0.79800   0.97790   0.00000  Uiso   1.00
H208   H     0.06540   0.79020   0.00570   0.00000  Uiso   1.00
C209   C     0.00000   0.76040   0.94140   0.00000  Uiso   1.00
C210   C     0.01440   0.70570   0.94640   0.00000  Uiso   1.00
C211   C    -0.04730   0.77190   0.89230   0.00000  Uiso   1.00
H212   H    -0.06880   0.74630   0.86490   0.00000  Uiso   1.00
C213   C    -0.06270   0.82120   0.88390   0.00000  Uiso   1.00
C214   C    -0.03110   0.86000   0.92820   0.00000  Uiso   1.00
H215   H    -0.04200   0.89310   0.92810   0.00000  Uiso   1.00
In216  In    0.10904   0.96754   0.04086   0.00000  Uiso   1.00
N217   N    -0.01810   1.12080   0.54530   0.00000  Uiso   1.00
O218   O     0.06976   1.02476   0.17730   0.00000  Uiso   1.00
O219   O     0.10597   0.95991   0.27210   0.00000  Uiso   1.00
O220   O     0.10698   0.96100   0.79630   0.00000  Uiso   1.00
O221   O     0.08440   1.02680   0.89510   0.00000  Uiso   1.00
O222   O     0.09757   0.88204   0.02660   0.00000  Uiso   1.00
O223   O     0.03406   0.93353   0.01950   0.00000  Uiso   1.00
O224   O    -0.01920   0.67320   0.92350   0.00000  Uiso   1.00
O225   O     0.05708   0.69251   0.97570   0.00000  Uiso   1.00
C226   C     0.41823   0.49912   0.28170   0.00000  Uiso   1.00
C227   C     0.43351   0.47893   0.41530   0.00000  Uiso   1.00
C228   C     0.41620   0.49980   0.53580   0.00000  Uiso   1.00
H229   H     0.39500   0.52760   0.53460   0.00000  Uiso   1.00
C230   C     0.43080   0.47850   0.65790   0.00000  Uiso   1.00
C231   C     0.41180   0.49770   0.78830   0.00000  Uiso   1.00
C232   C     0.46300   0.43890   0.66340   0.00000  Uiso   1.00
H233   H     0.47250   0.42540   0.74660   0.00000  Uiso   1.00
C234   C     0.48120   0.41930   0.54480   0.00000  Uiso   1.00
C235   C     0.46650   0.43860   0.42010   0.00000  Uiso   1.00
H236   H     0.47870   0.42460   0.34010   0.00000  Uiso   1.00
C237   C     0.52230   0.34670   0.65400   0.00000  Uiso   1.00
H238   H     0.50230   0.34540   0.73130   0.00000  Uiso   1.00
N239   N     0.56390   0.31550   0.62200   0.00000  Uiso   1.00
N240   N     0.58310   0.33080   0.49380   0.00000  Uiso   1.00
C241   C     0.55320   0.37141   0.44660   0.00000  Uiso   1.00
H242   H     0.55690   0.38900   0.36560   0.00000  Uiso   1.00
N243   N     0.61020   0.66985   0.82790   0.00000  Uiso   1.00
C244   C     0.63641   0.62357   0.83760   0.00000  Uiso   1.00
H245   H     0.62520   0.59490   0.88210   0.00000  Uiso   1.00
N246   N     0.68271   0.62880   0.76750   0.00000  Uiso   1.00
N247   N     0.68511   0.67833   0.71450   0.00000  Uiso   1.00
C248   C     0.64029   0.70369   0.75180   0.00000  Uiso   1.00
H249   H     0.63210   0.73670   0.73020   0.00000  Uiso   1.00
C250   C     0.44850   0.61020   0.00960   0.00000  Uiso   1.00
C251   C     0.48290   0.65230   0.97250   0.00000  Uiso   1.00
C252   C     0.46710   0.70200   0.97790   0.00000  Uiso   1.00
H253   H     0.43460   0.70980   0.00570   0.00000  Uiso   1.00
C254   C     0.50000   0.73960   0.94140   0.00000  Uiso   1.00
C255   C     0.48560   0.79430   0.94640   0.00000  Uiso   1.00
C256   C     0.54730   0.72810   0.89230   0.00000  Uiso   1.00
H257   H     0.56880   0.75370   0.86490   0.00000  Uiso   1.00
C258   C     0.56270   0.67880   0.88390   0.00000  Uiso   1.00
C259   C     0.53110   0.64000   0.92820   0.00000  Uiso   1.00
H260   H     0.54200   0.60690   0.92810   0.00000  Uiso   1.00
In261  In    0.39096   0.53246   0.04086   0.00000  Uiso   1.00
N262   N     0.51810   0.37920   0.54530   0.00000  Uiso   1.00
O263   O     0.43024   0.47524   0.17730   0.00000  Uiso   1.00
O264   O     0.39403   0.54009   0.27210   0.00000  Uiso   1.00
O265   O     0.39302   0.53900   0.79630   0.00000  Uiso   1.00
O266   O     0.41560   0.47320   0.89510   0.00000  Uiso   1.00
O267   O     0.40243   0.61796   0.02660   0.00000  Uiso   1.00
O268   O     0.46594   0.56647   0.01950   0.00000  Uiso   1.00
O269   O     0.51920   0.82680   0.92350   0.00000  Uiso   1.00
O270   O     0.44292   0.80749   0.97570   0.00000  Uiso   1.00
C271   C     0.49912   0.08177   0.28170   0.00000  Uiso   1.00
C272   C     0.47893   0.06649   0.41530   0.00000  Uiso   1.00
C273   C     0.49980   0.08380   0.53580   0.00000  Uiso   1.00
H274   H     0.52760   0.10500   0.53460   0.00000  Uiso   1.00
C275   C     0.47850   0.06920   0.65790   0.00000  Uiso   1.00
C276   C     0.49770   0.08820   0.78830   0.00000  Uiso   1.00
C277   C     0.43890   0.03700   0.66340   0.00000  Uiso   1.00
H278   H     0.42540   0.02750   0.74660   0.00000  Uiso   1.00
C279   C     0.41930   0.01880   0.54480   0.00000  Uiso   1.00
C280   C     0.43860   0.03350   0.42010   0.00000  Uiso   1.00
H281   H     0.42460   0.02130   0.34010   0.00000  Uiso   1.00
C282   C     0.34670  -0.02230   0.65400   0.00000  Uiso   1.00
H283   H     0.34540  -0.00230   0.73130   0.00000  Uiso   1.00
N284   N     0.31550  -0.06390   0.62200   0.00000  Uiso   1.00
N285   N     0.33080  -0.08310   0.49380   0.00000  Uiso   1.00
C286   C     0.37141  -0.05320   0.44660   0.00000  Uiso   1.00
H287   H     0.38900  -0.05690   0.36560   0.00000  Uiso   1.00
N288   N     0.66985  -0.11020   0.82790   0.00000  Uiso   1.00
C289   C     0.62357  -0.13641   0.83760   0.00000  Uiso   1.00
H290   H     0.59490  -0.12520   0.88210   0.00000  Uiso   1.00
N291   N     0.62880  -0.18271   0.76750   0.00000  Uiso   1.00
N292   N     0.67833  -0.18511   0.71450   0.00000  Uiso   1.00
C293   C     0.70369  -0.14029   0.75180   0.00000  Uiso   1.00
H294   H     0.73670  -0.13210   0.73020   0.00000  Uiso   1.00
C295   C     0.61020   0.05150   0.00960   0.00000  Uiso   1.00
C296   C     0.65230   0.01710   0.97250   0.00000  Uiso   1.00
C297   C     0.70200   0.03290   0.97790   0.00000  Uiso   1.00
H298   H     0.70980   0.06540   0.00570   0.00000  Uiso   1.00
C299   C     0.73960   0.00000   0.94140   0.00000  Uiso   1.00
C300   C     0.79430   0.01440   0.94640   0.00000  Uiso   1.00
C301   C     0.72810  -0.04730   0.89230   0.00000  Uiso   1.00
H302   H     0.75370  -0.06880   0.86490   0.00000  Uiso   1.00
C303   C     0.67880  -0.06270   0.88390   0.00000  Uiso   1.00
C304   C     0.64000  -0.03110   0.92820   0.00000  Uiso   1.00
H305   H     0.60690  -0.04200   0.92810   0.00000  Uiso   1.00
In306  In    0.53246   0.10904   0.04086   0.00000  Uiso   1.00
N307   N     0.37920  -0.01810   0.54530   0.00000  Uiso   1.00
O308   O     0.47524   0.06976   0.17730   0.00000  Uiso   1.00
O309   O     0.54009   0.10597   0.27210   0.00000  Uiso   1.00
O310   O     0.53900   0.10698   0.79630   0.00000  Uiso   1.00
O311   O     0.47320   0.08440   0.89510   0.00000  Uiso   1.00
O312   O     0.61796   0.09757   0.02660   0.00000  Uiso   1.00
O313   O     0.56647   0.03406   0.01950   0.00000  Uiso   1.00
O314   O     0.82680  -0.01920   0.92350   0.00000  Uiso   1.00
O315   O     0.80749   0.05708   0.97570   0.00000  Uiso   1.00
C316   C     1.00088   0.41823   0.28170   0.00000  Uiso   1.00
C317   C     1.02107   0.43351   0.41530   0.00000  Uiso   1.00
C318   C     1.00020   0.41620   0.53580   0.00000  Uiso   1.00
H319   H     0.97240   0.39500   0.53460   0.00000  Uiso   1.00
C320   C     1.02150   0.43080   0.65790   0.00000  Uiso   1.00
C321   C     1.00230   0.41180   0.78830   0.00000  Uiso   1.00
C322   C     1.06110   0.46300   0.66340   0.00000  Uiso   1.00
H323   H     1.07460   0.47250   0.74660   0.00000  Uiso   1.00
C324   C     1.08070   0.48120   0.54480   0.00000  Uiso   1.00
C325   C     1.06140   0.46650   0.42010   0.00000  Uiso   1.00
H326   H     1.07540   0.47870   0.34010   0.00000  Uiso   1.00
C327   C     1.15330   0.52230   0.65400   0.00000  Uiso   1.00
H328   H     1.15460   0.50230   0.73130   0.00000  Uiso   1.00
N329   N     1.18450   0.56390   0.62200   0.00000  Uiso   1.00
N330   N     1.16920   0.58310   0.49380   0.00000  Uiso   1.00
C331   C     1.12859   0.55320   0.44660   0.00000  Uiso   1.00
H332   H     1.11100   0.55690   0.36560   0.00000  Uiso   1.00
N333   N     0.83015   0.61020   0.82790   0.00000  Uiso   1.00
C334   C     0.87643   0.63641   0.83760   0.00000  Uiso   1.00
H335   H     0.90510   0.62520   0.88210   0.00000  Uiso   1.00
N336   N     0.87120   0.68271   0.76750   0.00000  Uiso   1.00
N337   N     0.82167   0.68511   0.71450   0.00000  Uiso   1.00
C338   C     0.79631   0.64029   0.75180   0.00000  Uiso   1.00
H339   H     0.76330   0.63210   0.73020   0.00000  Uiso   1.00
C340   C     0.88980   0.44850   0.00960   0.00000  Uiso   1.00
C341   C     0.84770   0.48290   0.97250   0.00000  Uiso   1.00
C342   C     0.79800   0.46710   0.97790   0.00000  Uiso   1.00
H343   H     0.79020   0.43460   0.00570   0.00000  Uiso   1.00
C344   C     0.76040   0.50000   0.94140   0.00000  Uiso   1.00
C345   C     0.70570   0.48560   0.94640   0.00000  Uiso   1.00
C346   C     0.77190   0.54730   0.89230   0.00000  Uiso   1.00
H347   H     0.74630   0.56880   0.86490   0.00000  Uiso   1.00
C348   C     0.82120   0.56270   0.88390   0.00000  Uiso   1.00
C349   C     0.86000   0.53110   0.92820   0.00000  Uiso   1.00
H350   H     0.89310   0.54200   0.92810   0.00000  Uiso   1.00
In351  In    0.96754   0.39096   0.04086   0.00000  Uiso   1.00
N352   N     1.12080   0.51810   0.54530   0.00000  Uiso   1.00
O353   O     1.02476   0.43024   0.17730   0.00000  Uiso   1.00
O354   O     0.95991   0.39403   0.27210   0.00000  Uiso   1.00
O355   O     0.96100   0.39302   0.79630   0.00000  Uiso   1.00
O356   O     1.02680   0.41560   0.89510   0.00000  Uiso   1.00
O357   O     0.88204   0.40243   0.02660   0.00000  Uiso   1.00
O358   O     0.93353   0.46594   0.01950   0.00000  Uiso   1.00
O359   O     0.67320   0.51920   0.92350   0.00000  Uiso   1.00
O360   O     0.69251   0.44292   0.97570   0.00000  Uiso   1.00
loop_
_geom_bond_atom_site_label_1
_geom_bond_atom_site_label_2
_geom_bond_distance
_geom_bond_site_symmetry_2
_ccdc_geom_bond_type
C1     C2      1.478   .     S
C1     O38     1.250   .     S
C1     O39     1.271   .     S
C2     C3      1.389   .     S
C2     C10     1.389   .     S
C3     H4      0.931   .     S
C3     C5      1.385   .     S
C5     C6      1.471   .     S
C5     C7      1.361   .     S
C6     O40     1.211   .     S
C6     O41     1.241   .     S
C7     H8      0.929   .     S
C7     C9      1.368   .     S
C9     N37     1.452   .     S
C9     C10     1.387   .     S
C10    H11     0.930   .     S
C12    H13     0.929   .     S
C12    N14     1.421   .     S
C12    N37     1.381   .     S
N14    N15     1.421   .     S
N15    C16     1.421   .     S
C16    H17     0.930   .     S
C16    N37     1.364   .     S
N18    C19     1.420   .     S
N18    C23     1.420   .     S
N18    C33     1.401   .     S
C19    H20     0.930   .     S
C19    N21     1.420   .     S
N21    N22     1.420   .     S
N22    C23     1.420   .     S
C23    H24     0.931   .     S
C25    C26     1.494   1_556 S
C25    O42     1.256   .     S
C25    O43     1.258   .     S
C26    C25     1.494   1_554 S
C26    C27     1.390   .     S
C26    C34     1.395   .     S
C27    H28     0.931   1_554 S
C27    C29     1.379   .     S
H28    C27     0.931   1_556 S
C29    C30     1.508   .     S
C29    C31     1.384   .     S
C30    O44     1.265   .     S
C30    O45     1.224   .     S
C31    H32     0.930   .     S
C31    C33     1.378   .     S
C33    C34     1.402   .     S
C34    H35     0.928   .     S
In36   O40     2.414   1_556 S
In36   O38     2.285   .     S
In36   O39     2.286   .     S
In36   O314    2.222   .     S
In36   O315    2.324   .     S
In36   O41     2.232   1_556 S
In36   O42     2.302   .     S
In36   O43     2.203   .     S
O40    In36    2.414   1_554 S
O41    In36    2.232   1_554 S
O44    In351   2.222   .     S
O45    In351   2.324   .     S
C46    C47     1.478   .     S
C46    O83     1.250   .     S
C46    O84     1.271   .     S
C47    C48     1.389   .     S
C47    C55     1.389   .     S
C48    H49     0.931   .     S
C48    C50     1.385   .     S
C50    C51     1.471   .     S
C50    C52     1.361   .     S
C51    O85     1.211   .     S
C51    O86     1.241   .     S
C52    H53     0.929   .     S
C52    C54     1.368   .     S
C54    N82     1.452   .     S
C54    C55     1.387   .     S
C55    H56     0.930   .     S
C57    H58     0.929   .     S
C57    N59     1.421   .     S
C57    N82     1.381   .     S
N59    N60     1.421   .     S
N60    C61     1.421   .     S
C61    H62     0.930   .     S
C61    N82     1.364   .     S
N63    C64     1.420   .     S
N63    C68     1.420   .     S
N63    C78     1.401   .     S
C64    H65     0.930   .     S
C64    N66     1.420   .     S
N66    N67     1.420   .     S
N67    C68     1.420   .     S
C68    H69     0.931   .     S
C70    C71     1.494   1_556 S
C70    O87     1.256   .     S
C70    O88     1.258   .     S
C71    C70     1.494   1_554 S
C71    C72     1.390   .     S
C71    C79     1.395   .     S
C72    H73     0.931   1_554 S
C72    C74     1.379   .     S
H73    C72     0.931   1_556 S
C74    C75     1.508   .     S
C74    C76     1.384   .     S
C75    O89     1.265   .     S
C75    O90     1.224   .     S
C76    H77     0.930   .     S
C76    C78     1.378   .     S
C78    C79     1.402   .     S
C79    H80     0.928   .     S
In81   O85     2.414   1_556 S
In81   O83     2.285   .     S
In81   O84     2.286   .     S
In81   O359    2.222   .     S
In81   O360    2.324   .     S
In81   O86     2.232   1_556 S
In81   O87     2.302   .     S
In81   O88     2.203   .     S
O85    In81    2.414   1_554 S
O86    In81    2.232   1_554 S
O89    In306   2.222   .     S
O90    In306   2.324   .     S
C91    C92     1.478   .     S
C91    O128    1.250   .     S
C91    O129    1.271   .     S
C92    C93     1.389   .     S
C92    C100    1.389   .     S
C93    H94     0.931   .     S
C93    C95     1.385   .     S
C95    C96     1.471   .     S
C95    C97     1.361   .     S
C96    O130    1.211   .     S
C96    O131    1.241   .     S
C97    H98     0.929   .     S
C97    C99     1.368   .     S
C99    N127    1.452   .     S
C99    C100    1.387   .     S
C100   H101    0.930   .     S
C102   H103    0.929   .     S
C102   N104    1.421   .     S
C102   N127    1.381   .     S
N104   N105    1.421   .     S
N105   C106    1.421   .     S
C106   H107    0.930   .     S
C106   N127    1.364   .     S
N108   C109    1.420   .     S
N108   C113    1.420   .     S
N108   C123    1.401   .     S
C109   H110    0.930   .     S
C109   N111    1.420   .     S
N111   N112    1.420   .     S
N112   C113    1.420   .     S
C113   H114    0.931   .     S
C115   C116    1.494   1_556 S
C115   O132    1.256   .     S
C115   O133    1.258   .     S
C116   C115    1.494   1_554 S
C116   C117    1.390   .     S
C116   C124    1.395   .     S
C117   H118    0.931   1_554 S
C117   C119    1.379   .     S
H118   C117    0.931   1_556 S
C119   C120    1.508   .     S
C119   C121    1.384   .     S
C120   O134    1.265   .     S
C120   O135    1.224   .     S
C121   H122    0.930   .     S
C121   C123    1.378   .     S
C123   C124    1.402   .     S
C124   H125    0.928   .     S
In126  O130    2.414   1_556 S
In126  O128    2.285   .     S
In126  O129    2.286   .     S
In126  O269    2.222   .     S
In126  O270    2.324   .     S
In126  O131    2.232   1_556 S
In126  O132    2.302   .     S
In126  O133    2.203   .     S
O130   In126   2.414   1_554 S
O131   In126   2.232   1_554 S
O134   In216   2.222   .     S
O135   In216   2.324   .     S
C136   C137    1.478   .     S
C136   O173    1.250   .     S
C136   O174    1.271   .     S
C137   C138    1.389   .     S
C137   C145    1.389   .     S
C138   H139    0.931   .     S
C138   C140    1.385   .     S
C140   C141    1.471   .     S
C140   C142    1.361   .     S
C141   O175    1.211   .     S
C141   O176    1.241   .     S
C142   H143    0.929   .     S
C142   C144    1.368   .     S
C144   N172    1.452   .     S
C144   C145    1.387   .     S
C145   H146    0.930   .     S
C147   H148    0.929   .     S
C147   N149    1.421   .     S
C147   N172    1.381   .     S
N149   N150    1.421   .     S
N150   C151    1.421   .     S
C151   H152    0.930   .     S
C151   N172    1.364   .     S
N153   C154    1.420   .     S
N153   C158    1.420   .     S
N153   C168    1.401   .     S
C154   H155    0.930   .     S
C154   N156    1.420   .     S
N156   N157    1.420   .     S
N157   C158    1.420   .     S
C158   H159    0.931   .     S
C160   C161    1.494   1_556 S
C160   O177    1.256   .     S
C160   O178    1.258   .     S
C161   C160    1.494   1_554 S
C161   C162    1.390   .     S
C161   C169    1.395   .     S
C162   H163    0.931   1_554 S
C162   C164    1.379   .     S
H163   C162    0.931   1_556 S
C164   C165    1.508   .     S
C164   C166    1.384   .     S
C165   O179    1.265   .     S
C165   O180    1.224   .     S
C166   H167    0.930   .     S
C166   C168    1.378   .     S
C168   C169    1.402   .     S
C169   H170    0.928   .     S
In171  O175    2.414   1_556 S
In171  O173    2.285   .     S
In171  O174    2.286   .     S
In171  O224    2.222   .     S
In171  O225    2.324   .     S
In171  O176    2.232   1_556 S
In171  O177    2.302   .     S
In171  O178    2.203   .     S
O175   In171   2.414   1_554 S
O176   In171   2.232   1_554 S
O179   In261   2.222   .     S
O180   In261   2.324   .     S
C181   C182    1.478   .     S
C181   O218    1.250   .     S
C181   O219    1.271   .     S
C182   C183    1.389   .     S
C182   C190    1.389   .     S
C183   H184    0.931   .     S
C183   C185    1.385   .     S
C185   C186    1.471   .     S
C185   C187    1.361   .     S
C186   O220    1.211   .     S
C186   O221    1.241   .     S
C187   H188    0.929   .     S
C187   C189    1.368   .     S
C189   N217    1.452   .     S
C189   C190    1.387   .     S
C190   H191    0.930   .     S
C192   H193    0.929   .     S
C192   N194    1.421   .     S
C192   N217    1.381   .     S
N194   N195    1.421   .     S
N195   C196    1.421   .     S
C196   H197    0.930   .     S
C196   N217    1.364   .     S
N198   C199    1.420   .     S
N198   C203    1.420   .     S
N198   C213    1.401   .     S
C199   H200    0.930   .     S
C199   N201    1.420   .     S
N201   N202    1.420   .     S
N202   C203    1.420   .     S
C203   H204    0.931   .     S
C205   C206    1.494   1_554 S
C205   O222    1.256   .     S
C205   O223    1.258   .     S
C206   C205    1.494   1_556 S
C206   C207    1.390   .     S
C206   C214    1.395   .     S
C207   H208    0.931   1_556 S
C207   C209    1.379   .     S
H208   C207    0.931   1_554 S
C209   C210    1.508   .     S
C209   C211    1.384   .     S
C210   O224    1.265   .     S
C210   O225    1.224   .     S
C211   H212    0.930   .     S
C211   C213    1.378   .     S
C213   C214    1.402   .     S
C214   H215    0.928   .     S
In216  O220    2.414   1_554 S
In216  O218    2.285   .     S
In216  O219    2.286   .     S
In216  O221    2.232   1_554 S
In216  O222    2.302   .     S
In216  O223    2.203   .     S
O220   In216   2.414   1_556 S
O221   In216   2.232   1_556 S
C226   C227    1.478   .     S
C226   O263    1.250   .     S
C226   O264    1.271   .     S
C227   C228    1.389   .     S
C227   C235    1.389   .     S
C228   H229    0.931   .     S
C228   C230    1.385   .     S
C230   C231    1.471   .     S
C230   C232    1.361   .     S
C231   O265    1.211   .     S
C231   O266    1.241   .     S
C232   H233    0.929   .     S
C232   C234    1.368   .     S
C234   N262    1.452   .     S
C234   C235    1.387   .     S
C235   H236    0.930   .     S
C237   H238    0.929   .     S
C237   N239    1.421   .     S
C237   N262    1.381   .     S
N239   N240    1.421   .     S
N240   C241    1.421   .     S
C241   H242    0.930   .     S
C241   N262    1.364   .     S
N243   C244    1.420   .     S
N243   C248    1.420   .     S
N243   C258    1.401   .     S
C244   H245    0.930   .     S
C244   N246    1.420   .     S
N246   N247    1.420   .     S
N247   C248    1.420   .     S
C248   H249    0.931   .     S
C250   C251    1.494   1_554 S
C250   O267    1.256   .     S
C250   O268    1.258   .     S
C251   C250    1.494   1_556 S
C251   C252    1.390   .     S
C251   C259    1.395   .     S
C252   H253    0.931   1_556 S
C252   C254    1.379   .     S
H253   C252    0.931   1_554 S
C254   C255    1.508   .     S
C254   C256    1.384   .     S
C255   O269    1.265   .     S
C255   O270    1.224   .     S
C256   H257    0.930   .     S
C256   C258    1.378   .     S
C258   C259    1.402   .     S
C259   H260    0.928   .     S
In261  O265    2.414   1_554 S
In261  O263    2.285   .     S
In261  O264    2.286   .     S
In261  O266    2.232   1_554 S
In261  O267    2.302   .     S
In261  O268    2.203   .     S
O265   In261   2.414   1_556 S
O266   In261   2.232   1_556 S
C271   C272    1.478   .     S
C271   O308    1.250   .     S
C271   O309    1.271   .     S
C272   C273    1.389   .     S
C272   C280    1.389   .     S
C273   H274    0.931   .     S
C273   C275    1.385   .     S
C275   C276    1.471   .     S
C275   C277    1.361   .     S
C276   O310    1.211   .     S
C276   O311    1.241   .     S
C277   H278    0.929   .     S
C277   C279    1.368   .     S
C279   N307    1.452   .     S
C279   C280    1.387   .     S
C280   H281    0.930   .     S
C282   H283    0.929   .     S
C282   N284    1.421   .     S
C282   N307    1.381   .     S
N284   N285    1.421   .     S
N285   C286    1.421   .     S
C286   H287    0.930   .     S
C286   N307    1.364   .     S
N288   C289    1.420   .     S
N288   C293    1.420   .     S
N288   C303    1.401   .     S
C289   H290    0.930   .     S
C289   N291    1.420   .     S
N291   N292    1.420   .     S
N292   C293    1.420   .     S
C293   H294    0.931   .     S
C295   C296    1.494   1_554 S
C295   O312    1.256   .     S
C295   O313    1.258   .     S
C296   C295    1.494   1_556 S
C296   C297    1.390   .     S
C296   C304    1.395   .     S
C297   H298    0.931   1_556 S
C297   C299    1.379   .     S
H298   C297    0.931   1_554 S
C299   C300    1.508   .     S
C299   C301    1.384   .     S
C300   O314    1.265   .     S
C300   O315    1.224   .     S
C301   H302    0.930   .     S
C301   C303    1.378   .     S
C303   C304    1.402   .     S
C304   H305    0.928   .     S
In306  O310    2.414   1_554 S
In306  O308    2.285   .     S
In306  O309    2.286   .     S
In306  O311    2.232   1_554 S
In306  O312    2.302   .     S
In306  O313    2.203   .     S
O310   In306   2.414   1_556 S
O311   In306   2.232   1_556 S
C316   C317    1.478   .     S
C316   O353    1.250   .     S
C316   O354    1.271   .     S
C317   C318    1.389   .     S
C317   C325    1.389   .     S
C318   H319    0.931   .     S
C318   C320    1.385   .     S
C320   C321    1.471   .     S
C320   C322    1.361   .     S
C321   O355    1.211   .     S
C321   O356    1.241   .     S
C322   H323    0.929   .     S
C322   C324    1.368   .     S
C324   N352    1.452   .     S
C324   C325    1.387   .     S
C325   H326    0.930   .     S
C327   H328    0.929   .     S
C327   N329    1.421   .     S
C327   N352    1.381   .     S
N329   N330    1.421   .     S
N330   C331    1.421   .     S
C331   H332    0.930   .     S
C331   N352    1.364   .     S
N333   C334    1.420   .     S
N333   C338    1.420   .     S
N333   C348    1.401   .     S
C334   H335    0.930   .     S
C334   N336    1.420   .     S
N336   N337    1.420   .     S
N337   C338    1.420   .     S
C338   H339    0.931   .     S
C340   C341    1.494   1_554 S
C340   O357    1.256   .     S
C340   O358    1.258   .     S
C341   C340    1.494   1_556 S
C341   C342    1.390   .     S
C341   C349    1.395   .     S
C342   H343    0.931   1_556 S
C342   C344    1.379   .     S
H343   C342    0.931   1_554 S
C344   C345    1.508   .     S
C344   C346    1.384   .     S
C345   O359    1.265   .     S
C345   O360    1.224   .     S
C346   H347    0.930   .     S
C346   C348    1.378   .     S
C348   C349    1.402   .     S
C349   H350    0.928   .     S
In351  O355    2.414   1_554 S
In351  O353    2.285   .     S
In351  O354    2.286   .     S
In351  O356    2.232   1_554 S
In351  O357    2.302   .     S
In351  O358    2.203   .     S
O355   In351   2.414   1_556 S
O356   In351   2.232   1_556 S
