data_REHJUN_FSR
_audit_creation_date              2024-06-11
_audit_creation_method            'Materials Studio'
_symmetry_space_group_name_H-M    'P1'
_symmetry_Int_Tables_number       1
_symmetry_cell_setting            triclinic
loop_
_symmetry_equiv_pos_as_xyz
  x,y,z
_cell_length_a                    10.9560
_cell_length_b                    7.6191
_cell_length_c                    26.8540
_cell_angle_alpha                 90.0000
_cell_angle_beta                  90.0000
_cell_angle_gamma                 90.0000
loop_
_atom_site_label
_atom_site_type_symbol
_atom_site_fract_x
_atom_site_fract_y
_atom_site_fract_z
_atom_site_U_iso_or_equiv
_atom_site_adp_type
_atom_site_occupancy
Gd1    Gd    0.26811   0.33577   0.63342   0.00000  Uiso   1.00
P2     P     0.60014   0.27320   0.61282   0.00000  Uiso   1.00
H3     H     0.62903   0.30767   0.64553   0.00000  Uiso   1.00
H4     H     0.61523   0.36748   0.58932   0.00000  Uiso   1.00
P5     P     0.94031   0.47040   0.65375   0.00000  Uiso   1.00
H6     H     0.93773   0.51522   0.68754   0.00000  Uiso   1.00
H7     H     0.90747   0.35224   0.65307   0.00000  Uiso   1.00
H8     H     0.36686   0.35098   0.49300   0.00000  Uiso   1.00
O9     O     0.67480   0.11610   0.59610   0.00000  Uiso   1.00
O10    O     0.24250   0.29120   0.54619   0.00000  Uiso   1.00
O11    O     0.30630   0.52820   0.70180   0.00000  Uiso   1.00
O12    O     0.46560   0.24740   0.61600   0.00000  Uiso   1.00
O13    O     0.85840   0.58380   0.62290   0.00000  Uiso   1.00
O14    O     0.07310   0.46090   0.63840   0.00000  Uiso   1.00
O15    O     0.29960   0.15170   0.70290   0.00000  Uiso   1.00
Gd16   Gd    0.73189   0.66423   0.13342   0.00000  Uiso   1.00
P17    P     0.39986   0.72680   0.11282   0.00000  Uiso   1.00
H18    H     0.37097   0.69233   0.14553   0.00000  Uiso   1.00
H19    H     0.38477   0.63252   0.08932   0.00000  Uiso   1.00
P20    P     0.05969   0.52960   0.15375   0.00000  Uiso   1.00
H21    H     0.06227   0.48478   0.18754   0.00000  Uiso   1.00
H22    H     0.09253   0.64776   0.15307   0.00000  Uiso   1.00
H23    H     0.63314   0.64902   0.99300   0.00000  Uiso   1.00
O24    O     0.32520   0.88390   0.09610   0.00000  Uiso   1.00
O25    O     0.75750   0.70880   0.04619   0.00000  Uiso   1.00
O26    O     0.69370   0.47180   0.20180   0.00000  Uiso   1.00
O27    O     0.53440   0.75260   0.11600   0.00000  Uiso   1.00
O28    O     0.14160   0.41620   0.12290   0.00000  Uiso   1.00
O29    O     0.92690   0.53910   0.13840   0.00000  Uiso   1.00
O30    O     0.70040   0.84830   0.20290   0.00000  Uiso   1.00
Gd31   Gd    0.73189   0.83577   0.86658   0.00000  Uiso   1.00
P32    P     0.39986   0.77320   0.88718   0.00000  Uiso   1.00
H33    H     0.37097   0.80767   0.85447   0.00000  Uiso   1.00
H34    H     0.38477   0.86748   0.91068   0.00000  Uiso   1.00
P35    P     0.05969   0.97040   0.84625   0.00000  Uiso   1.00
H36    H     0.06227   0.01522   0.81246   0.00000  Uiso   1.00
H37    H     0.09253   0.85224   0.84693   0.00000  Uiso   1.00
H38    H     0.63314   0.85098   0.00700   0.00000  Uiso   1.00
O39    O     0.32520   0.61610   0.90390   0.00000  Uiso   1.00
O40    O     0.75750   0.79120   0.95381   0.00000  Uiso   1.00
O41    O     0.69370   0.02820   0.79820   0.00000  Uiso   1.00
O42    O     0.53440   0.74740   0.88400   0.00000  Uiso   1.00
O43    O     0.14160   0.08380   0.87710   0.00000  Uiso   1.00
O44    O     0.92690   0.96090   0.86160   0.00000  Uiso   1.00
O45    O     0.70040   0.65170   0.79710   0.00000  Uiso   1.00
Gd46   Gd    0.26811   0.16423   0.36658   0.00000  Uiso   1.00
P47    P     0.60014   0.22680   0.38718   0.00000  Uiso   1.00
H48    H     0.62903   0.19233   0.35447   0.00000  Uiso   1.00
H49    H     0.61523   0.13252   0.41068   0.00000  Uiso   1.00
P50    P     0.94031   0.02960   0.34625   0.00000  Uiso   1.00
H51    H     0.93773   0.98478   0.31246   0.00000  Uiso   1.00
H52    H     0.90747   0.14776   0.34693   0.00000  Uiso   1.00
H53    H     0.36686   0.14902   0.50700   0.00000  Uiso   1.00
O54    O     0.67480   0.38390   0.40390   0.00000  Uiso   1.00
O55    O     0.24250   0.20880   0.45381   0.00000  Uiso   1.00
O56    O     0.30630   0.97180   0.29820   0.00000  Uiso   1.00
O57    O     0.46560   0.25260   0.38400   0.00000  Uiso   1.00
O58    O     0.85840   0.91620   0.37710   0.00000  Uiso   1.00
O59    O     0.07310   0.03910   0.36160   0.00000  Uiso   1.00
O60    O     0.29960   0.34830   0.29710   0.00000  Uiso   1.00
Gd61   Gd    0.73189   0.66423   0.36658   0.00000  Uiso   1.00
P62    P     0.39986   0.72680   0.38718   0.00000  Uiso   1.00
H63    H     0.37097   0.69233   0.35447   0.00000  Uiso   1.00
H64    H     0.38477   0.63252   0.41068   0.00000  Uiso   1.00
P65    P     0.05969   0.52960   0.34625   0.00000  Uiso   1.00
H66    H     0.06227   0.48478   0.31246   0.00000  Uiso   1.00
H67    H     0.09253   0.64776   0.34693   0.00000  Uiso   1.00
H68    H     0.63314   0.64902   0.50700   0.00000  Uiso   1.00
O69    O     0.32520   0.88390   0.40390   0.00000  Uiso   1.00
O70    O     0.75750   0.70880   0.45381   0.00000  Uiso   1.00
O71    O     0.69370   0.47180   0.29820   0.00000  Uiso   1.00
O72    O     0.53440   0.75260   0.38400   0.00000  Uiso   1.00
O73    O     0.14160   0.41620   0.37710   0.00000  Uiso   1.00
O74    O     0.92690   0.53910   0.36160   0.00000  Uiso   1.00
O75    O     0.70040   0.84830   0.29710   0.00000  Uiso   1.00
Gd76   Gd    0.26811   0.33577   0.86658   0.00000  Uiso   1.00
P77    P     0.60014   0.27320   0.88718   0.00000  Uiso   1.00
H78    H     0.62903   0.30767   0.85447   0.00000  Uiso   1.00
H79    H     0.61523   0.36748   0.91068   0.00000  Uiso   1.00
P80    P     0.94031   0.47040   0.84625   0.00000  Uiso   1.00
H81    H     0.93773   0.51522   0.81246   0.00000  Uiso   1.00
H82    H     0.90747   0.35224   0.84693   0.00000  Uiso   1.00
H83    H     0.36686   0.35098   0.00700   0.00000  Uiso   1.00
O84    O     0.67480   0.11610   0.90390   0.00000  Uiso   1.00
O85    O     0.24250   0.29120   0.95381   0.00000  Uiso   1.00
O86    O     0.30630   0.52820   0.79820   0.00000  Uiso   1.00
O87    O     0.46560   0.24740   0.88400   0.00000  Uiso   1.00
O88    O     0.85840   0.58380   0.87710   0.00000  Uiso   1.00
O89    O     0.07310   0.46090   0.86160   0.00000  Uiso   1.00
O90    O     0.29960   0.15170   0.79710   0.00000  Uiso   1.00
Gd91   Gd    0.26811   0.16423   0.13342   0.00000  Uiso   1.00
P92    P     0.60014   0.22680   0.11282   0.00000  Uiso   1.00
H93    H     0.62903   0.19233   0.14553   0.00000  Uiso   1.00
H94    H     0.61523   0.13252   0.08932   0.00000  Uiso   1.00
P95    P     0.94031   0.02960   0.15375   0.00000  Uiso   1.00
H96    H     0.93773   0.98478   0.18754   0.00000  Uiso   1.00
H97    H     0.90747   0.14776   0.15307   0.00000  Uiso   1.00
H98    H     0.36686   0.14902   0.99300   0.00000  Uiso   1.00
O99    O     0.67480   0.38390   0.09610   0.00000  Uiso   1.00
O100   O     0.24250   0.20880   0.04619   0.00000  Uiso   1.00
O101   O     0.30630   0.97180   0.20180   0.00000  Uiso   1.00
O102   O     0.46560   0.25260   0.11600   0.00000  Uiso   1.00
O103   O     0.85840   0.91620   0.12290   0.00000  Uiso   1.00
O104   O     0.07310   0.03910   0.13840   0.00000  Uiso   1.00
O105   O     0.29960   0.34830   0.20290   0.00000  Uiso   1.00
Gd106  Gd    0.73189   0.83577   0.63342   0.00000  Uiso   1.00
P107   P     0.39986   0.77320   0.61282   0.00000  Uiso   1.00
H108   H     0.37097   0.80767   0.64553   0.00000  Uiso   1.00
H109   H     0.38477   0.86748   0.58932   0.00000  Uiso   1.00
P110   P     0.05969   0.97040   0.65375   0.00000  Uiso   1.00
H111   H     0.06227   0.01522   0.68754   0.00000  Uiso   1.00
H112   H     0.09253   0.85224   0.65307   0.00000  Uiso   1.00
H113   H     0.63314   0.85098   0.49300   0.00000  Uiso   1.00
O114   O     0.32520   0.61610   0.59610   0.00000  Uiso   1.00
O115   O     0.75750   0.79120   0.54619   0.00000  Uiso   1.00
O116   O     0.69370   0.02820   0.70180   0.00000  Uiso   1.00
O117   O     0.53440   0.74740   0.61600   0.00000  Uiso   1.00
O118   O     0.14160   0.08380   0.62290   0.00000  Uiso   1.00
O119   O     0.92690   0.96090   0.63840   0.00000  Uiso   1.00
O120   O     0.70040   0.65170   0.70290   0.00000  Uiso   1.00
P121   P     0.36920   0.13030   0.75000   0.00000  Uiso   1.00
H122   H     0.40464   0.01362   0.75000   0.00000  Uiso   1.00
H123   H     0.43385   0.21723   0.75000   0.00000  Uiso   1.00
P124   P     0.24780   0.57910   0.75000   0.00000  Uiso   1.00
H125   H     0.24116   0.70611   0.75000   0.00000  Uiso   1.00
H126   H     0.16673   0.52788   0.75000   0.00000  Uiso   1.00
P127   P     0.63080   0.86970   0.25000   0.00000  Uiso   1.00
H128   H     0.59536   0.98638   0.25000   0.00000  Uiso   1.00
H129   H     0.56615   0.78277   0.25000   0.00000  Uiso   1.00
P130   P     0.75220   0.42090   0.25000   0.00000  Uiso   1.00
H131   H     0.75884   0.29389   0.25000   0.00000  Uiso   1.00
H132   H     0.83327   0.47212   0.25000   0.00000  Uiso   1.00
P133   P     0.63080   0.63030   0.75000   0.00000  Uiso   1.00
H134   H     0.59536   0.51362   0.75000   0.00000  Uiso   1.00
H135   H     0.56615   0.71723   0.75000   0.00000  Uiso   1.00
P136   P     0.75220   0.07910   0.75000   0.00000  Uiso   1.00
H137   H     0.75884   0.20611   0.75000   0.00000  Uiso   1.00
H138   H     0.83327   0.02788   0.75000   0.00000  Uiso   1.00
P139   P     0.36920   0.36970   0.25000   0.00000  Uiso   1.00
H140   H     0.40464   0.48638   0.25000   0.00000  Uiso   1.00
H141   H     0.43385   0.28277   0.25000   0.00000  Uiso   1.00
P142   P     0.24780   0.92090   0.25000   0.00000  Uiso   1.00
H143   H     0.24116   0.79389   0.25000   0.00000  Uiso   1.00
H144   H     0.16673   0.97212   0.25000   0.00000  Uiso   1.00
P145   P     0.31570   0.25000   0.50000   0.00000  Uiso   1.00
P146   P     0.68430   0.75000   0.00000   0.00000  Uiso   1.00
P147   P     0.68430   0.75000   0.50000   0.00000  Uiso   1.00
P148   P     0.31570   0.25000   0.00000   0.00000  Uiso   1.00
loop_
_geom_bond_atom_site_label_1
_geom_bond_atom_site_label_2
_geom_bond_distance
_geom_bond_site_symmetry_2
_ccdc_geom_bond_type
Gd1    O10     2.384   .     S
Gd1    O11     2.387   .     S
Gd1    O12     2.314   .     S
Gd1    O14     2.343   .     S
Gd1    O15     2.359   .     S
Gd1    O114    2.441   .     S
Gd1    O118    2.385   .     S
P2     H3      0.970   .     S
P2     H4      0.970   .     S
P2     O9      1.518   .     S
P2     O12     1.490   .     S
P5     H6      0.970   .     S
P5     H7      0.970   .     S
P5     O13     1.496   .     S
P5     O14     1.514   1_655 S
H8     P145    0.970   .     S
O9     Gd106   2.441   1_545 S
O10    P145    1.510   .     S
O11    P124    1.496   .     S
O13    Gd106   2.385   .     S
O14    P5      1.514   1_455 S
O15    P121    1.486   .     S
Gd16   O25     2.384   .     S
Gd16   O26     2.387   .     S
Gd16   O27     2.314   .     S
Gd16   O29     2.343   .     S
Gd16   O30     2.359   .     S
Gd16   O99     2.441   .     S
Gd16   O103    2.385   .     S
P17    H18     0.970   .     S
P17    H19     0.970   .     S
P17    O24     1.518   .     S
P17    O27     1.490   .     S
P20    H21     0.970   .     S
P20    H22     0.970   .     S
P20    O28     1.496   .     S
P20    O29     1.514   1_455 S
H23    P146    0.970   1_556 S
O24    Gd91    2.441   1_565 S
O25    P146    1.510   .     S
O26    P130    1.496   .     S
O28    Gd91    2.385   .     S
O29    P20     1.514   1_655 S
O30    P127    1.486   .     S
Gd31   O40     2.384   .     S
Gd31   O41     2.387   1_565 S
Gd31   O42     2.314   .     S
Gd31   O44     2.343   .     S
Gd31   O45     2.359   .     S
Gd31   O84     2.441   1_565 S
Gd31   O88     2.385   .     S
P32    H33     0.970   .     S
P32    H34     0.970   .     S
P32    O39     1.518   .     S
P32    O42     1.490   .     S
P35    H36     0.970   1_565 S
P35    H37     0.970   .     S
P35    O43     1.496   1_565 S
P35    O44     1.514   1_455 S
H36    P35     0.970   1_545 S
H38    P146    0.970   .     S
O39    Gd76    2.441   .     S
O40    P146    1.510   1_556 S
O41    Gd31    2.387   1_545 S
O41    P136    1.496   .     S
O43    P35     1.496   1_545 S
O43    Gd76    2.385   .     S
O44    P35     1.514   1_655 S
O45    P133    1.486   .     S
Gd46   O55     2.384   .     S
Gd46   O56     2.387   1_545 S
Gd46   O57     2.314   .     S
Gd46   O59     2.343   .     S
Gd46   O60     2.359   .     S
Gd46   O69     2.441   1_545 S
Gd46   O73     2.385   .     S
P47    H48     0.970   .     S
P47    H49     0.970   .     S
P47    O54     1.518   .     S
P47    O57     1.490   .     S
P50    H51     0.970   1_545 S
P50    H52     0.970   .     S
P50    O58     1.496   1_545 S
P50    O59     1.514   1_655 S
H51    P50     0.970   1_565 S
H53    P145    0.970   .     S
O54    Gd61    2.441   .     S
O55    P145    1.510   .     S
O56    Gd46    2.387   1_565 S
O56    P142    1.496   .     S
O58    P50     1.496   1_565 S
O58    Gd61    2.385   .     S
O59    P50     1.514   1_455 S
O60    P139    1.486   .     S
Gd61   O70     2.384   .     S
Gd61   O71     2.387   .     S
Gd61   O72     2.314   .     S
Gd61   O74     2.343   .     S
Gd61   O75     2.359   .     S
P62    H63     0.970   .     S
P62    H64     0.970   .     S
P62    O69     1.518   .     S
P62    O72     1.490   .     S
P65    H66     0.970   .     S
P65    H67     0.970   .     S
P65    O73     1.496   .     S
P65    O74     1.514   1_455 S
H68    P147    0.970   .     S
O69    Gd46    2.441   1_565 S
O70    P147    1.510   .     S
O71    P130    1.496   .     S
O74    P65     1.514   1_655 S
O75    P127    1.486   .     S
Gd76   O85     2.384   .     S
Gd76   O86     2.387   .     S
Gd76   O87     2.314   .     S
Gd76   O89     2.343   .     S
Gd76   O90     2.359   .     S
P77    H78     0.970   .     S
P77    H79     0.970   .     S
P77    O84     1.518   .     S
P77    O87     1.490   .     S
P80    H81     0.970   .     S
P80    H82     0.970   .     S
P80    O88     1.496   .     S
P80    O89     1.514   1_655 S
H83    P148    0.970   .     S
O84    Gd31    2.441   1_545 S
O85    P148    1.510   1_556 S
O86    P124    1.496   .     S
O89    P80     1.514   1_455 S
O90    P121    1.486   .     S
Gd91   O100    2.384   .     S
Gd91   O101    2.387   1_545 S
Gd91   O102    2.314   .     S
Gd91   O104    2.343   .     S
Gd91   O105    2.359   .     S
Gd91   O24     2.441   1_545 S
P92    H93     0.970   .     S
P92    H94     0.970   .     S
P92    O99     1.518   .     S
P92    O102    1.490   .     S
P95    H96     0.970   1_545 S
P95    H97     0.970   .     S
P95    O103    1.496   1_545 S
P95    O104    1.514   1_655 S
H96    P95     0.970   1_565 S
H98    P148    0.970   1_556 S
O100   P148    1.510   .     S
O101   Gd91    2.387   1_565 S
O101   P142    1.496   .     S
O103   P95     1.496   1_565 S
O104   P95     1.514   1_455 S
O105   P139    1.486   .     S
Gd106  O115    2.384   .     S
Gd106  O116    2.387   1_565 S
Gd106  O117    2.314   .     S
Gd106  O119    2.343   .     S
Gd106  O120    2.359   .     S
Gd106  O9      2.441   1_565 S
P107   H108    0.970   .     S
P107   H109    0.970   .     S
P107   O114    1.518   .     S
P107   O117    1.490   .     S
P110   H111    0.970   1_565 S
P110   H112    0.970   .     S
P110   O118    1.496   1_565 S
P110   O119    1.514   1_455 S
H111   P110    0.970   1_545 S
H113   P147    0.970   .     S
O115   P147    1.510   .     S
O116   Gd106   2.387   1_545 S
O116   P136    1.496   .     S
O118   P110    1.496   1_545 S
O119   P110    1.514   1_655 S
O120   P133    1.486   .     S
P121   H122    0.970   .     S
P121   H123    0.970   .     S
P124   H125    0.970   .     S
P124   H126    0.970   .     S
P127   H128    0.970   .     S
P127   H129    0.970   .     S
P130   H131    0.970   .     S
P130   H132    0.970   .     S
P133   H134    0.970   .     S
P133   H135    0.970   .     S
P136   H137    0.970   .     S
P136   H138    0.970   .     S
P139   H140    0.970   .     S
P139   H141    0.970   .     S
P142   H143    0.970   .     S
P142   H144    0.970   .     S
P146   H23     0.970   1_554 S
P146   O40     1.510   1_554 S
P148   H98     0.970   1_554 S
P148   O85     1.510   1_554 S
