data_REPKIK_FSR
_audit_creation_date              2024-06-11
_audit_creation_method            'Materials Studio'
_symmetry_space_group_name_H-M    'P1'
_symmetry_Int_Tables_number       1
_symmetry_cell_setting            triclinic
loop_
_symmetry_equiv_pos_as_xyz
  x,y,z
_cell_length_a                    12.5395
_cell_length_b                    14.0067
_cell_length_c                    19.8586
_cell_angle_alpha                 108.9380
_cell_angle_beta                  103.2460
_cell_angle_gamma                 96.0680
loop_
_atom_site_label
_atom_site_type_symbol
_atom_site_fract_x
_atom_site_fract_y
_atom_site_fract_z
_atom_site_U_iso_or_equiv
_atom_site_adp_type
_atom_site_occupancy
Sr1    Sr    0.02714   0.35564   0.99174   0.00000  Uiso   1.00
Sr2    Sr    0.07303   0.16002   0.82014   0.00000  Uiso   1.00
O3     O     0.15220   0.23000   0.96472   0.00000  Uiso   1.00
O4     O     0.91780   0.64560   0.12864   0.00000  Uiso   1.00
O5     O     0.95090   0.97860   0.73357   0.00000  Uiso   1.00
O6     O     0.90120   0.19640   0.86403   0.00000  Uiso   1.00
O7     O     0.98810   0.51010   0.08009   0.00000  Uiso   1.00
O8     O     0.11910   0.06020   0.91353   0.00000  Uiso   1.00
O9     O     0.82120   0.32130   0.91908   0.00000  Uiso   1.00
O10    O     0.12940   0.00250   0.73649   0.00000  Uiso   1.00
O11    O     0.21910   0.47820   0.05710   0.00000  Uiso   1.00
H12    H     0.20980   0.54010   0.06960   0.00000  Uiso   1.00
H13    H     0.25720   0.47310   0.02610   0.00000  Uiso   1.00
O14    O     0.95940   0.25210   0.05810   0.00000  Uiso   1.00
O15    O     0.01280   0.17950   0.69360   0.00000  Uiso   1.00
O16    O     0.27390   0.24810   0.83520   0.00000  Uiso   1.00
H17    H     0.32020   0.21400   0.85000   0.00000  Uiso   1.00
H18    H     0.29070   0.30650   0.87010   0.00000  Uiso   1.00
N19    N     0.91260   0.11970   0.57210   0.00000  Uiso   1.00
C20    C     0.38040   0.41660   0.37620   0.00000  Uiso   1.00
H21    H     0.39790   0.41530   0.42400   0.00000  Uiso   1.00
C22    C     0.77950   0.57170   0.33530   0.00000  Uiso   1.00
C23    C     0.87260   0.56700   0.23520   0.00000  Uiso   1.00
H24    H     0.83220   0.61490   0.22470   0.00000  Uiso   1.00
C25    C     0.70620   0.11170   0.74130   0.00000  Uiso   1.00
H26    H     0.76250   0.07360   0.74300   0.00000  Uiso   1.00
C27    C     0.55740   0.78230   0.50140   0.00000  Uiso   1.00
C28    C     0.43300   0.61060   0.43010   0.00000  Uiso   1.00
C29    C     0.92340   0.46330   0.30790   0.00000  Uiso   1.00
H30    H     0.91570   0.43910   0.34520   0.00000  Uiso   1.00
C31    C     0.00890   0.46170   0.21060   0.00000  Uiso   1.00
H32    H     0.05850   0.43810   0.18360   0.00000  Uiso   1.00
C33    C     0.14770   0.14080   0.96900   0.00000  Uiso   1.00
C34    C     0.33750   0.32590   0.31590   0.00000  Uiso   1.00
H35    H     0.32960   0.26410   0.32390   0.00000  Uiso   1.00
C36    C     0.61160   0.07580   0.67990   0.00000  Uiso   1.00
C37    C     0.53150   0.67460   0.44660   0.00000  Uiso   1.00
C38    C     0.49750   0.93950   0.55910   0.00000  Uiso   1.00
H39    H     0.44260   0.97920   0.55880   0.00000  Uiso   1.00
C40    C     0.85970   0.53350   0.29280   0.00000  Uiso   1.00
C41    C     0.08260   0.71210   0.57190   0.00000  Uiso   1.00
C42    C     0.17230   0.68240   0.53650   0.00000  Uiso   1.00
C43    C     0.62090   0.64070   0.41060   0.00000  Uiso   1.00
C44    C     0.10010   0.80860   0.62750   0.00000  Uiso   1.00
H45    H     0.16910   0.85270   0.64350   0.00000  Uiso   1.00
C46    C     0.65920   0.82140   0.55620   0.00000  Uiso   1.00
H47    H     0.71550   0.78320   0.55460   0.00000  Uiso   1.00
C48    C     0.64900   0.54490   0.40350   0.00000  Uiso   1.00
H49    H     0.61500   0.50320   0.42380   0.00000  Uiso   1.00
C50    C     0.22910   0.22470   0.10630   0.00000  Uiso   1.00
H51    H     0.25060   0.28470   0.09820   0.00000  Uiso   1.00
C52    C     0.14480   0.04580   0.05680   0.00000  Uiso   1.00
H53    H     0.11060   0.98570   0.01630   0.00000  Uiso   1.00
C54    C     0.28410   0.70660   0.57850   0.00000  Uiso   1.00
H55    H     0.30210   0.73980   0.62970   0.00000  Uiso   1.00
C56    C     0.01560   0.83970   0.65910   0.00000  Uiso   1.00
C57    C     0.36840   0.68220   0.54550   0.00000  Uiso   1.00
H58    H     0.44180   0.69760   0.57480   0.00000  Uiso   1.00
C59    C     0.25110   0.22680   0.17910   0.00000  Uiso   1.00
C60    C     0.30590   0.32390   0.24360   0.00000  Uiso   1.00
C61    C     0.59670   0.97610   0.61720   0.00000  Uiso   1.00
C62    C     0.97900   0.64600   0.54920   0.00000  Uiso   1.00
H63    H     0.96530   0.58250   0.51110   0.00000  Uiso   1.00
C64    C     0.75430   0.66850   0.34500   0.00000  Uiso   1.00
H65    H     0.78940   0.71100   0.32570   0.00000  Uiso   1.00
C66    C     0.72710   0.51090   0.36630   0.00000  Uiso   1.00
H67    H     0.74470   0.44670   0.36210   0.00000  Uiso   1.00
C68    C     0.94460   0.52990   0.19370   0.00000  Uiso   1.00
C69    C     0.39740   0.51050   0.36550   0.00000  Uiso   1.00
C70    C     0.71750   0.20330   0.79990   0.00000  Uiso   1.00
C71    C     0.16440   0.04510   0.12860   0.00000  Uiso   1.00
H72    H     0.14290   0.98470   0.13620   0.00000  Uiso   1.00
C73    C     0.91440   0.77140   0.63750   0.00000  Uiso   1.00
H74    H     0.85850   0.79060   0.65980   0.00000  Uiso   1.00
C75    C     0.34450   0.63450   0.46850   0.00000  Uiso   1.00
C76    C     0.03300   0.94770   0.71400   0.00000  Uiso   1.00
C77    C     0.67860   0.91610   0.61290   0.00000  Uiso   1.00
H78    H     0.74740   0.94000   0.64870   0.00000  Uiso   1.00
C79    C     0.67710   0.70320   0.38320   0.00000  Uiso   1.00
H80    H     0.66330   0.76920   0.39030   0.00000  Uiso   1.00
C81    C     0.99840   0.42900   0.26790   0.00000  Uiso   1.00
H82    H     0.04190   0.38370   0.27970   0.00000  Uiso   1.00
C83    C     0.81980   0.24250   0.86500   0.00000  Uiso   1.00
C84    C     0.47940   0.84590   0.50240   0.00000  Uiso   1.00
H85    H     0.41350   0.82490   0.46400   0.00000  Uiso   1.00
C86    C     0.89650   0.67540   0.58340   0.00000  Uiso   1.00
H87    H     0.82880   0.63000   0.56970   0.00000  Uiso   1.00
N88    N     0.83420   0.20740   0.11330   0.00000  Uiso   1.00
C89    C     0.17620   0.13580   0.04590   0.00000  Uiso   1.00
C90    C     0.23260   0.60840   0.42740   0.00000  Uiso   1.00
H91    H     0.21410   0.57400   0.37640   0.00000  Uiso   1.00
C92    C     0.21590   0.13480   0.18850   0.00000  Uiso   1.00
H93    H     0.22740   0.13400   0.23630   0.00000  Uiso   1.00
C94    C     0.95130   0.56470   0.13120   0.00000  Uiso   1.00
C95    C     0.36920   0.50920   0.29370   0.00000  Uiso   1.00
H96    H     0.38160   0.57050   0.28550   0.00000  Uiso   1.00
C97    C     0.14850   0.63210   0.46030   0.00000  Uiso   1.00
H98    H     0.07480   0.61430   0.43110   0.00000  Uiso   1.00
C99    C     0.32260   0.41820   0.23380   0.00000  Uiso   1.00
H100   H     0.30210   0.42000   0.18620   0.00000  Uiso   1.00
C101   C     0.92770   0.20560   0.09580   0.00000  Uiso   1.00
H102   H     0.97480   0.16630   0.11290   0.00000  Uiso   1.00
C103   C     0.53010   0.13560   0.67950   0.00000  Uiso   1.00
H104   H     0.46630   0.11350   0.63940   0.00000  Uiso   1.00
C105   C     0.92430   0.14280   0.64390   0.00000  Uiso   1.00
H106   H     0.86010   0.13030   0.65810   0.00000  Uiso   1.00
C107   C     0.63430   0.26010   0.79790   0.00000  Uiso   1.00
H108   H     0.64100   0.32070   0.83740   0.00000  Uiso   1.00
C109   C     0.01040   0.14020   0.54680   0.00000  Uiso   1.00
H110   H     0.02430   0.21110   0.55140   0.00000  Uiso   1.00
H111   H     0.99680   0.09680   0.49590   0.00000  Uiso   1.00
H112   H     0.07420   0.12620   0.57660   0.00000  Uiso   1.00
C113   C     0.54120   0.22730   0.73730   0.00000  Uiso   1.00
H114   H     0.48610   0.26670   0.73530   0.00000  Uiso   1.00
C115   C     0.80440   0.08170   0.51760   0.00000  Uiso   1.00
H116   H     0.74860   0.06830   0.54120   0.00000  Uiso   1.00
H117   H     0.80610   0.01920   0.47940   0.00000  Uiso   1.00
H118   H     0.78660   0.13230   0.49610   0.00000  Uiso   1.00
C119   C     0.76020   0.27570   0.09070   0.00000  Uiso   1.00
H120   H     0.75380   0.32790   0.13420   0.00000  Uiso   1.00
H121   H     0.68750   0.23530   0.06170   0.00000  Uiso   1.00
H122   H     0.79200   0.30750   0.06180   0.00000  Uiso   1.00
C123   C     0.80000   0.15630   0.15880   0.00000  Uiso   1.00
H124   H     0.85510   0.11810   0.17220   0.00000  Uiso   1.00
H125   H     0.72960   0.11000   0.13180   0.00000  Uiso   1.00
H126   H     0.79220   0.20630   0.20280   0.00000  Uiso   1.00
Sr127  Sr    0.97286   0.64436   0.00826   0.00000  Uiso   1.00
Sr128  Sr    0.92697   0.83998   0.17986   0.00000  Uiso   1.00
O129   O     0.84780   0.77000   0.03528   0.00000  Uiso   1.00
O130   O     0.08220   0.35440   0.87136   0.00000  Uiso   1.00
O131   O     0.04910   0.02140   0.26643   0.00000  Uiso   1.00
O132   O     0.09880   0.80360   0.13597   0.00000  Uiso   1.00
O133   O     0.01190   0.48990   0.91991   0.00000  Uiso   1.00
O134   O     0.88090   0.93980   0.08647   0.00000  Uiso   1.00
O135   O     0.17880   0.67870   0.08092   0.00000  Uiso   1.00
O136   O     0.87060   0.99750   0.26351   0.00000  Uiso   1.00
O137   O     0.78090   0.52180   0.94290   0.00000  Uiso   1.00
H138   H     0.79020   0.45990   0.93040   0.00000  Uiso   1.00
H139   H     0.74280   0.52690   0.97390   0.00000  Uiso   1.00
O140   O     0.04060   0.74790   0.94190   0.00000  Uiso   1.00
O141   O     0.98720   0.82050   0.30640   0.00000  Uiso   1.00
O142   O     0.72610   0.75190   0.16480   0.00000  Uiso   1.00
H143   H     0.67980   0.78600   0.15000   0.00000  Uiso   1.00
H144   H     0.70930   0.69350   0.12990   0.00000  Uiso   1.00
N145   N     0.08740   0.88030   0.42790   0.00000  Uiso   1.00
C146   C     0.61960   0.58340   0.62380   0.00000  Uiso   1.00
H147   H     0.60210   0.58470   0.57600   0.00000  Uiso   1.00
C148   C     0.22050   0.42830   0.66470   0.00000  Uiso   1.00
C149   C     0.12740   0.43300   0.76480   0.00000  Uiso   1.00
H150   H     0.16780   0.38510   0.77530   0.00000  Uiso   1.00
C151   C     0.29380   0.88830   0.25870   0.00000  Uiso   1.00
H152   H     0.23750   0.92640   0.25700   0.00000  Uiso   1.00
C153   C     0.44260   0.21770   0.49860   0.00000  Uiso   1.00
C154   C     0.56700   0.38940   0.56990   0.00000  Uiso   1.00
C155   C     0.07660   0.53670   0.69210   0.00000  Uiso   1.00
H156   H     0.08430   0.56090   0.65480   0.00000  Uiso   1.00
C157   C     0.99110   0.53830   0.78940   0.00000  Uiso   1.00
H158   H     0.94150   0.56190   0.81640   0.00000  Uiso   1.00
C159   C     0.85230   0.85920   0.03100   0.00000  Uiso   1.00
C160   C     0.66250   0.67410   0.68410   0.00000  Uiso   1.00
H161   H     0.67040   0.73590   0.67610   0.00000  Uiso   1.00
C162   C     0.38840   0.92420   0.32010   0.00000  Uiso   1.00
C163   C     0.46850   0.32540   0.55340   0.00000  Uiso   1.00
C164   C     0.50250   0.06050   0.44090   0.00000  Uiso   1.00
H165   H     0.55740   0.02080   0.44120   0.00000  Uiso   1.00
C166   C     0.14030   0.46650   0.70720   0.00000  Uiso   1.00
C167   C     0.91740   0.28790   0.42810   0.00000  Uiso   1.00
C168   C     0.82770   0.31760   0.46350   0.00000  Uiso   1.00
C169   C     0.37910   0.35930   0.58940   0.00000  Uiso   1.00
C170   C     0.89990   0.19140   0.37250   0.00000  Uiso   1.00
H171   H     0.83090   0.14730   0.35650   0.00000  Uiso   1.00
C172   C     0.34080   0.17860   0.44380   0.00000  Uiso   1.00
H173   H     0.28450   0.21680   0.44540   0.00000  Uiso   1.00
C174   C     0.35100   0.45510   0.59650   0.00000  Uiso   1.00
H175   H     0.38500   0.49680   0.57620   0.00000  Uiso   1.00
C176   C     0.77090   0.77530   0.89370   0.00000  Uiso   1.00
H177   H     0.74940   0.71530   0.90180   0.00000  Uiso   1.00
C178   C     0.85520   0.95420   0.94320   0.00000  Uiso   1.00
H179   H     0.88940   0.01430   0.98370   0.00000  Uiso   1.00
C180   C     0.71590   0.29340   0.42150   0.00000  Uiso   1.00
H181   H     0.69790   0.26020   0.37030   0.00000  Uiso   1.00
C182   C     0.98440   0.16030   0.34090   0.00000  Uiso   1.00
C183   C     0.63160   0.31780   0.45450   0.00000  Uiso   1.00
H184   H     0.55820   0.30240   0.42520   0.00000  Uiso   1.00
C185   C     0.74890   0.77320   0.82090   0.00000  Uiso   1.00
C186   C     0.69410   0.67610   0.75640   0.00000  Uiso   1.00
C187   C     0.40330   0.02390   0.38280   0.00000  Uiso   1.00
C188   C     0.02100   0.35400   0.45080   0.00000  Uiso   1.00
H189   H     0.03470   0.41750   0.48890   0.00000  Uiso   1.00
C190   C     0.24570   0.33150   0.65500   0.00000  Uiso   1.00
H191   H     0.21060   0.28900   0.67430   0.00000  Uiso   1.00
C192   C     0.27290   0.48910   0.63370   0.00000  Uiso   1.00
H193   H     0.25530   0.55330   0.63790   0.00000  Uiso   1.00
C194   C     0.05540   0.47010   0.80630   0.00000  Uiso   1.00
C195   C     0.60260   0.48950   0.63450   0.00000  Uiso   1.00
C196   C     0.28250   0.79670   0.20010   0.00000  Uiso   1.00
C197   C     0.83560   0.95490   0.87140   0.00000  Uiso   1.00
H198   H     0.85710   0.01530   0.86380   0.00000  Uiso   1.00
C199   C     0.08560   0.22860   0.36250   0.00000  Uiso   1.00
H200   H     0.14150   0.20940   0.34020   0.00000  Uiso   1.00
C201   C     0.65550   0.36550   0.53150   0.00000  Uiso   1.00
C202   C     0.96700   0.05230   0.28600   0.00000  Uiso   1.00
C203   C     0.32140   0.08390   0.38710   0.00000  Uiso   1.00
H204   H     0.25260   0.06000   0.35130   0.00000  Uiso   1.00
C205   C     0.32290   0.29680   0.61680   0.00000  Uiso   1.00
H206   H     0.33670   0.23080   0.60970   0.00000  Uiso   1.00
C207   C     0.00160   0.57100   0.73210   0.00000  Uiso   1.00
H208   H     0.95810   0.61630   0.72030   0.00000  Uiso   1.00
C209   C     0.18020   0.75750   0.13500   0.00000  Uiso   1.00
C210   C     0.52060   0.15410   0.49760   0.00000  Uiso   1.00
H211   H     0.58650   0.17510   0.53600   0.00000  Uiso   1.00
C212   C     0.10350   0.32460   0.41660   0.00000  Uiso   1.00
H213   H     0.17120   0.37000   0.43030   0.00000  Uiso   1.00
N214   N     0.16580   0.79260   0.88670   0.00000  Uiso   1.00
C215   C     0.82380   0.86420   0.95410   0.00000  Uiso   1.00
C216   C     0.76740   0.39160   0.57260   0.00000  Uiso   1.00
H217   H     0.78590   0.42600   0.62360   0.00000  Uiso   1.00
C218   C     0.78410   0.86520   0.81150   0.00000  Uiso   1.00
H219   H     0.77260   0.86600   0.76370   0.00000  Uiso   1.00
C220   C     0.04870   0.43530   0.86880   0.00000  Uiso   1.00
C221   C     0.63080   0.49080   0.70630   0.00000  Uiso   1.00
H222   H     0.61840   0.42950   0.71450   0.00000  Uiso   1.00
C223   C     0.85150   0.36790   0.53970   0.00000  Uiso   1.00
H224   H     0.92520   0.38570   0.56890   0.00000  Uiso   1.00
C225   C     0.67740   0.58180   0.76620   0.00000  Uiso   1.00
H226   H     0.69790   0.58000   0.81380   0.00000  Uiso   1.00
C227   C     0.07230   0.79440   0.90420   0.00000  Uiso   1.00
H228   H     0.02520   0.83370   0.88710   0.00000  Uiso   1.00
C229   C     0.46990   0.86440   0.32050   0.00000  Uiso   1.00
H230   H     0.53370   0.88650   0.36060   0.00000  Uiso   1.00
C231   C     0.07570   0.85720   0.35610   0.00000  Uiso   1.00
H232   H     0.13990   0.86970   0.34190   0.00000  Uiso   1.00
C233   C     0.36570   0.73990   0.20210   0.00000  Uiso   1.00
H234   H     0.35900   0.67930   0.16260   0.00000  Uiso   1.00
C235   C     0.98960   0.85980   0.45320   0.00000  Uiso   1.00
H236   H     0.97570   0.78890   0.44860   0.00000  Uiso   1.00
H237   H     0.00320   0.90320   0.50410   0.00000  Uiso   1.00
H238   H     0.92580   0.87380   0.42340   0.00000  Uiso   1.00
C239   C     0.45880   0.77270   0.26270   0.00000  Uiso   1.00
H240   H     0.51390   0.73330   0.26470   0.00000  Uiso   1.00
C241   C     0.19560   0.91830   0.48240   0.00000  Uiso   1.00
H242   H     0.25140   0.93170   0.45880   0.00000  Uiso   1.00
H243   H     0.19390   0.98080   0.52060   0.00000  Uiso   1.00
H244   H     0.21340   0.86770   0.50390   0.00000  Uiso   1.00
C245   C     0.23980   0.72430   0.90930   0.00000  Uiso   1.00
H246   H     0.24620   0.67210   0.86580   0.00000  Uiso   1.00
H247   H     0.31250   0.76470   0.93830   0.00000  Uiso   1.00
H248   H     0.20800   0.69250   0.93820   0.00000  Uiso   1.00
C249   C     0.20000   0.84370   0.84120   0.00000  Uiso   1.00
H250   H     0.14490   0.88190   0.82780   0.00000  Uiso   1.00
H251   H     0.27040   0.89000   0.86820   0.00000  Uiso   1.00
H252   H     0.20780   0.79370   0.79720   0.00000  Uiso   1.00
loop_
_geom_bond_atom_site_label_1
_geom_bond_atom_site_label_2
_geom_bond_distance
_geom_bond_site_symmetry_2
_ccdc_geom_bond_type
Sr1    O3      2.490   .     S
Sr1    O11     2.583   1_556 S
Sr1    O14     2.461   1_456 S
Sr1    O130    2.631   .     S
Sr1    O6      2.766   1_455 S
Sr1    O7      2.480   1_456 S
Sr1    O133    2.702   .     S
Sr1    O9      2.562   1_455 S
Sr2    O6      2.543   1_455 S
Sr2    O15     2.565   .     S
Sr2    O16     2.591   .     S
Sr2    O3      2.617   .     S
Sr2    O130    2.558   .     S
Sr2    O5      2.625   1_445 S
Sr2    O8      2.663   .     S
Sr2    O10     2.572   .     S
O3     C33     1.276   .     S
O4     C94     1.261   .     S
O4     Sr127   2.631   .     S
O4     Sr128   2.558   .     S
O5     C76     1.252   1_655 S
O5     Sr2     2.625   1_665 S
O6     Sr2     2.543   1_655 S
O6     C83     1.265   .     S
O6     Sr1     2.766   1_655 S
O7     C94     1.270   .     S
O7     Sr1     2.480   1_654 S
O7     Sr127   2.702   .     S
O8     C33     1.242   .     S
O9     C83     1.261   .     S
O9     Sr1     2.562   1_655 S
O10    C76     1.258   1_545 S
O11    Sr1     2.583   1_554 S
O11    H12     0.850   .     S
O11    H13     0.852   .     S
O14    Sr1     2.461   1_654 S
O14    C101    1.241   .     S
O15    C105    1.232   1_455 S
O16    H17     0.850   .     S
O16    H18     0.850   .     S
N19    C105    1.324   .     S
N19    C109    1.463   1_655 S
N19    C115    1.448   .     S
C20    H21     0.931   .     S
C20    C34     1.382   .     S
C20    C69     1.401   .     S
C22    C40     1.490   .     S
C22    C64     1.387   .     S
C22    C66     1.394   .     S
C23    H24     0.930   .     S
C23    C40     1.404   .     S
C23    C68     1.388   .     S
C25    H26     0.930   .     S
C25    C36     1.400   .     S
C25    C70     1.392   .     S
C27    C37     1.495   .     S
C27    C46     1.394   .     S
C27    C84     1.390   .     S
C28    C37     1.351   .     S
C28    C75     1.492   .     S
C28    C69     1.500   .     S
C29    H30     0.928   .     S
C29    C81     1.392   .     S
C29    C40     1.394   .     S
C31    H32     0.930   .     S
C31    C68     1.386   1_455 S
C31    C81     1.384   1_455 S
C33    C89     1.513   1_556 S
C34    H35     0.929   .     S
C34    C60     1.389   .     S
C36    C61     1.498   1_545 S
C36    C103    1.388   .     S
C37    C43     1.501   .     S
C38    H39     0.930   .     S
C38    C61     1.402   .     S
C38    C84     1.378   .     S
C41    C42     1.485   .     S
C41    C44     1.397   .     S
C41    C62     1.398   1_455 S
C42    C54     1.399   .     S
C42    C97     1.390   .     S
C43    C48     1.394   .     S
C43    C79     1.383   .     S
C44    H45     0.930   .     S
C44    C56     1.390   .     S
C46    H47     0.930   .     S
C46    C77     1.387   .     S
C48    H49     0.930   .     S
C48    C66     1.390   .     S
C50    H51     0.930   .     S
C50    C59     1.398   .     S
C50    C89     1.386   .     S
C52    H53     0.930   1_545 S
C52    C71     1.394   .     S
C52    C89     1.379   .     S
H53    C52     0.930   1_565 S
C54    H55     0.931   .     S
C54    C57     1.383   .     S
C56    C73     1.392   1_455 S
C56    C76     1.508   .     S
C57    H58     0.929   .     S
C57    C75     1.400   .     S
C59    C92     1.401   .     S
C59    C60     1.494   .     S
C60    C99     1.398   .     S
C61    C36     1.498   1_565 S
C61    C77     1.394   .     S
C62    C41     1.398   1_655 S
C62    H63     0.930   .     S
C62    C86     1.390   .     S
C64    H65     0.930   .     S
C64    C79     1.395   .     S
C66    H67     0.931   .     S
C68    C94     1.489   .     S
C68    C31     1.386   1_655 S
C69    C95     1.382   .     S
C70    C83     1.500   .     S
C70    C107    1.378   .     S
C71    H72     0.930   1_545 S
C71    C92     1.385   .     S
H72    C71     0.930   1_565 S
C73    C56     1.392   1_655 S
C73    H74     0.930   .     S
C73    C86     1.379   .     S
C75    C90     1.393   .     S
C76    O5      1.252   1_455 S
C76    O10     1.258   1_565 S
C77    H78     0.930   .     S
C79    H80     0.930   .     S
C81    H82     0.931   1_655 S
C81    C31     1.384   1_655 S
H82    C81     0.931   1_455 S
C84    H85     0.930   .     S
C86    H87     0.931   .     S
N88    C101    1.297   .     S
N88    C119    1.501   .     S
N88    C123    1.430   .     S
C89    C33     1.513   1_554 S
C90    H91     0.929   .     S
C90    C97     1.378   .     S
C92    H93     0.931   .     S
C95    H96     0.928   .     S
C95    C99     1.386   .     S
C97    H98     0.930   .     S
C99    H100    0.930   .     S
C101   H102    0.930   .     S
C103   H104    0.930   .     S
C103   C113    1.385   .     S
C105   O15     1.232   1_655 S
C105   H106    0.930   .     S
C107   H108    0.930   .     S
C107   C113    1.381   .     S
C109   N19     1.463   1_455 S
C109   H110    0.960   .     S
C109   H111    0.959   1_455 S
C109   H112    0.959   .     S
H111   C109    0.959   1_655 S
C113   H114    0.930   .     S
C115   H116    0.961   .     S
C115   H117    0.961   .     S
C115   H118    0.959   .     S
C119   H120    0.960   .     S
C119   H121    0.960   .     S
C119   H122    0.959   .     S
C123   H124    0.960   .     S
C123   H125    0.961   .     S
C123   H126    0.959   .     S
Sr127  O129    2.490   .     S
Sr127  O137    2.583   1_554 S
Sr127  O140    2.461   1_654 S
Sr127  O132    2.766   1_655 S
Sr127  O133    2.480   1_654 S
Sr127  O135    2.562   1_655 S
Sr128  O132    2.543   1_655 S
Sr128  O141    2.565   .     S
Sr128  O142    2.591   .     S
Sr128  O129    2.617   .     S
Sr128  O131    2.625   1_665 S
Sr128  O134    2.663   .     S
Sr128  O136    2.572   .     S
O129   C159    1.276   .     S
O130   C220    1.261   .     S
O131   C202    1.252   1_455 S
O131   Sr128   2.625   1_445 S
O132   Sr128   2.543   1_455 S
O132   C209    1.265   .     S
O132   Sr127   2.766   1_455 S
O133   C220    1.270   .     S
O133   Sr127   2.480   1_456 S
O134   C159    1.242   .     S
O135   C209    1.261   .     S
O135   Sr127   2.562   1_455 S
O136   C202    1.258   1_565 S
O137   Sr127   2.583   1_556 S
O137   H138    0.850   .     S
O137   H139    0.852   .     S
O140   Sr127   2.461   1_456 S
O140   C227    1.241   .     S
O141   C231    1.232   1_655 S
O142   H143    0.850   .     S
O142   H144    0.850   .     S
N145   C231    1.324   .     S
N145   C235    1.463   1_455 S
N145   C241    1.448   .     S
C146   H147    0.931   .     S
C146   C160    1.382   .     S
C146   C195    1.401   .     S
C148   C166    1.490   .     S
C148   C190    1.387   .     S
C148   C192    1.394   .     S
C149   H150    0.930   .     S
C149   C166    1.404   .     S
C149   C194    1.388   .     S
C151   H152    0.930   .     S
C151   C162    1.400   .     S
C151   C196    1.392   .     S
C153   C163    1.495   .     S
C153   C172    1.394   .     S
C153   C210    1.390   .     S
C154   C163    1.351   .     S
C154   C201    1.492   .     S
C154   C195    1.500   .     S
C155   H156    0.928   .     S
C155   C207    1.392   .     S
C155   C166    1.394   .     S
C157   H158    0.930   .     S
C157   C194    1.386   1_655 S
C157   C207    1.384   1_655 S
C159   C215    1.513   1_554 S
C160   H161    0.929   .     S
C160   C186    1.389   .     S
C162   C187    1.498   1_565 S
C162   C229    1.388   .     S
C163   C169    1.501   .     S
C164   H165    0.930   .     S
C164   C187    1.402   .     S
C164   C210    1.378   .     S
C167   C168    1.485   .     S
C167   C170    1.397   .     S
C167   C188    1.398   1_655 S
C168   C180    1.399   .     S
C168   C223    1.390   .     S
C169   C174    1.394   .     S
C169   C205    1.383   .     S
C170   H171    0.930   .     S
C170   C182    1.390   .     S
C172   H173    0.930   .     S
C172   C203    1.387   .     S
C174   H175    0.930   .     S
C174   C192    1.390   .     S
C176   H177    0.930   .     S
C176   C185    1.398   .     S
C176   C215    1.386   .     S
C178   H179    0.930   1_565 S
C178   C197    1.394   .     S
C178   C215    1.379   .     S
H179   C178    0.930   1_545 S
C180   H181    0.931   .     S
C180   C183    1.383   .     S
C182   C199    1.392   1_655 S
C182   C202    1.508   .     S
C183   H184    0.929   .     S
C183   C201    1.400   .     S
C185   C218    1.401   .     S
C185   C186    1.494   .     S
C186   C225    1.398   .     S
C187   C162    1.498   1_545 S
C187   C203    1.394   .     S
C188   C167    1.398   1_455 S
C188   H189    0.930   .     S
C188   C212    1.390   .     S
C190   H191    0.930   .     S
C190   C205    1.395   .     S
C192   H193    0.931   .     S
C194   C220    1.489   .     S
C194   C157    1.386   1_455 S
C195   C221    1.382   .     S
C196   C209    1.500   .     S
C196   C233    1.378   .     S
C197   H198    0.930   1_565 S
C197   C218    1.385   .     S
H198   C197    0.930   1_545 S
C199   C182    1.392   1_455 S
C199   H200    0.930   .     S
C199   C212    1.379   .     S
C201   C216    1.393   .     S
C202   O131    1.252   1_655 S
C202   O136    1.258   1_545 S
C203   H204    0.930   .     S
C205   H206    0.930   .     S
C207   H208    0.931   1_455 S
C207   C157    1.384   1_455 S
H208   C207    0.931   1_655 S
C210   H211    0.930   .     S
C212   H213    0.931   .     S
N214   C227    1.297   .     S
N214   C245    1.501   .     S
N214   C249    1.430   .     S
C215   C159    1.513   1_556 S
C216   H217    0.929   .     S
C216   C223    1.378   .     S
C218   H219    0.931   .     S
C221   H222    0.928   .     S
C221   C225    1.386   .     S
C223   H224    0.930   .     S
C225   H226    0.930   .     S
C227   H228    0.930   .     S
C229   H230    0.930   .     S
C229   C239    1.385   .     S
C231   O141    1.232   1_455 S
C231   H232    0.930   .     S
C233   H234    0.930   .     S
C233   C239    1.381   .     S
C235   N145    1.463   1_655 S
C235   H236    0.960   .     S
C235   H237    0.959   1_655 S
C235   H238    0.959   .     S
H237   C235    0.959   1_455 S
C239   H240    0.930   .     S
C241   H242    0.961   .     S
C241   H243    0.961   .     S
C241   H244    0.959   .     S
C245   H246    0.960   .     S
C245   H247    0.960   .     S
C245   H248    0.959   .     S
C249   H250    0.960   .     S
C249   H251    0.961   .     S
C249   H252    0.959   .     S
