data_RIFQEC01_FSR
_audit_creation_date              2024-06-11
_audit_creation_method            'Materials Studio'
_symmetry_space_group_name_H-M    'P1'
_symmetry_Int_Tables_number       1
_symmetry_cell_setting            triclinic
loop_
_symmetry_equiv_pos_as_xyz
  x,y,z
_cell_length_a                    6.3300
_cell_length_b                    8.7420
_cell_length_c                    12.9930
_cell_angle_alpha                 105.5700
_cell_angle_beta                  90.4510
_cell_angle_gamma                 105.1920
loop_
_atom_site_label
_atom_site_type_symbol
_atom_site_fract_x
_atom_site_fract_y
_atom_site_fract_z
_atom_site_U_iso_or_equiv
_atom_site_adp_type
_atom_site_occupancy
Ce1    Ce    0.19048   0.33311   0.92485   0.00000  Uiso   1.00
Ce2    Ce    0.43982   0.96985   0.74275   0.00000  Uiso   1.00
O3     O     0.82950   0.97150   0.10320   0.00000  Uiso   1.00
O4     O     0.13940   0.10220   0.70640   0.00000  Uiso   1.00
O5     O     0.51280   0.26810   0.84000   0.00000  Uiso   1.00
O6     O     0.84060   0.43160   0.92410   0.00000  Uiso   1.00
O7     O     0.49200   0.61370   0.93220   0.00000  Uiso   1.00
O8     O     0.73080   0.82790   0.66080   0.00000  Uiso   1.00
O9     O     0.79650   0.16840   0.83900   0.00000  Uiso   1.00
O10    O     0.68630   0.14930   0.45520   0.00000  Uiso   1.00
O11    O     0.98160   0.20050   0.05520   0.00000  Uiso   1.00
C12    C     0.45710   0.69570   0.86970   0.00000  Uiso   1.00
O13    O     0.23380   0.68070   0.71620   0.00000  Uiso   1.00
O14    O     0.55730   0.83820   0.87290   0.00000  Uiso   1.00
O15    O     0.16550   0.45860   0.77570   0.00000  Uiso   1.00
C16    C     0.71290   0.29100   0.86940   0.00000  Uiso   1.00
O17    O     0.64540   0.12840   0.62000   0.00000  Uiso   1.00
C18    C     0.26680   0.60130   0.78020   0.00000  Uiso   1.00
C19    C     0.59570   0.07940   0.52130   0.00000  Uiso   1.00
C20    C     0.94520   0.04950   0.04580   0.00000  Uiso   1.00
H21    H     0.75000   0.82400   0.59500   0.00000  Uiso   1.00
H22    H     0.13500   0.16200   0.66500   0.00000  Uiso   1.00
H23    H     0.01900   0.02700   0.69000   0.00000  Uiso   1.00
H24    H     0.74000   0.73600   0.66600   0.00000  Uiso   1.00
Ce25   Ce    0.80952   0.66689   0.07515   0.00000  Uiso   1.00
Ce26   Ce    0.56018   0.03015   0.25725   0.00000  Uiso   1.00
O27    O     0.17050   0.02850   0.89680   0.00000  Uiso   1.00
O28    O     0.86060   0.89780   0.29360   0.00000  Uiso   1.00
O29    O     0.48720   0.73190   0.16000   0.00000  Uiso   1.00
O30    O     0.15940   0.56840   0.07590   0.00000  Uiso   1.00
O31    O     0.50800   0.38630   0.06780   0.00000  Uiso   1.00
O32    O     0.26920   0.17210   0.33920   0.00000  Uiso   1.00
O33    O     0.20350   0.83160   0.16100   0.00000  Uiso   1.00
O34    O     0.31370   0.85070   0.54480   0.00000  Uiso   1.00
O35    O     0.01840   0.79950   0.94480   0.00000  Uiso   1.00
C36    C     0.54290   0.30430   0.13030   0.00000  Uiso   1.00
O37    O     0.76620   0.31930   0.28380   0.00000  Uiso   1.00
O38    O     0.44270   0.16180   0.12710   0.00000  Uiso   1.00
O39    O     0.83450   0.54140   0.22430   0.00000  Uiso   1.00
C40    C     0.28710   0.70900   0.13060   0.00000  Uiso   1.00
O41    O     0.35460   0.87160   0.38000   0.00000  Uiso   1.00
C42    C     0.73320   0.39870   0.21980   0.00000  Uiso   1.00
C43    C     0.40430   0.92060   0.47870   0.00000  Uiso   1.00
C44    C     0.05480   0.95050   0.95420   0.00000  Uiso   1.00
H45    H     0.25000   0.17600   0.40500   0.00000  Uiso   1.00
H46    H     0.86500   0.83800   0.33500   0.00000  Uiso   1.00
H47    H     0.98100   0.97300   0.31000   0.00000  Uiso   1.00
H48    H     0.26000   0.26400   0.33400   0.00000  Uiso   1.00
loop_
_geom_bond_atom_site_label_1
_geom_bond_atom_site_label_2
_geom_bond_distance
_geom_bond_site_symmetry_2
_ccdc_geom_bond_type
Ce1    O5      2.451   .     S
Ce1    O7      2.662   .     S
Ce1    O11     2.499   1_456 S
Ce1    O15     2.492   .     S
Ce1    O27     2.558   .     S
Ce1    O6      2.579   1_455 S
Ce1    O30     2.484   1_556 S
Ce1    O31     2.587   1_556 S
Ce1    O9      2.598   1_455 S
Ce2    O4      2.571   1_565 S
Ce2    O8      2.566   .     S
Ce2    O13     2.451   .     S
Ce2    O14     2.492   .     S
Ce2    O17     2.536   1_565 S
Ce2    O34     2.536   .     S
Ce2    O27     2.671   1_565 S
Ce2    O5      2.490   1_565 S
Ce2    O9      2.532   1_565 S
O3     C20     1.256   1_565 S
O3     Ce25    2.558   .     S
O3     Ce26    2.671   1_565 S
O4     Ce2     2.571   1_545 S
O4     H22     0.850   .     S
O4     H23     0.847   .     S
O5     C16     1.268   .     S
O5     Ce2     2.490   1_545 S
O6     C16     1.292   .     S
O6     Ce1     2.579   1_655 S
O6     Ce25    2.484   1_556 S
O7     C12     1.271   .     S
O7     Ce25    2.587   1_556 S
O8     H21     0.857   .     S
O8     H24     0.841   .     S
O9     C16     1.288   .     S
O9     Ce1     2.598   1_655 S
O9     Ce2     2.532   1_545 S
O10    C19     1.243   .     S
O10    Ce26    2.536   .     S
O11    Ce1     2.499   1_654 S
O11    C20     1.251   .     S
C12    C18     1.558   .     S
C12    O14     1.230   .     S
O13    C18     1.265   .     S
O15    C18     1.230   .     S
O17    Ce2     2.536   1_545 S
O17    C19     1.247   .     S
C19    C43     1.548   1_545 S
C20    O3      1.256   1_545 S
C20    C44     1.556   1_644 S
Ce25   O29     2.451   .     S
Ce25   O31     2.662   .     S
Ce25   O35     2.499   1_654 S
Ce25   O39     2.492   .     S
Ce25   O30     2.579   1_655 S
Ce25   O6      2.484   1_554 S
Ce25   O7      2.587   1_554 S
Ce25   O33     2.598   1_655 S
Ce26   O28     2.571   1_545 S
Ce26   O32     2.566   .     S
Ce26   O37     2.451   .     S
Ce26   O38     2.492   .     S
Ce26   O41     2.536   1_545 S
Ce26   O3      2.671   1_545 S
Ce26   O29     2.490   1_545 S
Ce26   O33     2.532   1_545 S
O27    C44     1.256   1_545 S
O27    Ce2     2.671   1_545 S
O28    Ce26    2.571   1_565 S
O28    H46     0.850   .     S
O28    H47     0.847   .     S
O29    C40     1.268   .     S
O29    Ce26    2.490   1_565 S
O30    C40     1.292   .     S
O30    Ce25    2.579   1_455 S
O30    Ce1     2.484   1_554 S
O31    C36     1.271   .     S
O31    Ce1     2.587   1_554 S
O32    H45     0.857   .     S
O32    H48     0.841   .     S
O33    C40     1.288   .     S
O33    Ce25    2.598   1_455 S
O33    Ce26    2.532   1_565 S
O34    C43     1.243   .     S
O35    Ce25    2.499   1_456 S
O35    C44     1.251   .     S
C36    C42     1.558   .     S
C36    O38     1.230   .     S
O37    C42     1.265   .     S
O39    C42     1.230   .     S
O41    Ce26    2.536   1_565 S
O41    C43     1.247   .     S
C43    C19     1.548   1_565 S
C44    O27     1.256   1_565 S
C44    C20     1.556   1_466 S
