data_RIMROX_FSR
_audit_creation_date              2024-06-11
_audit_creation_method            'Materials Studio'
_symmetry_space_group_name_H-M    'P1'
_symmetry_Int_Tables_number       1
_symmetry_cell_setting            triclinic
loop_
_symmetry_equiv_pos_as_xyz
  x,y,z
_cell_length_a                    7.9225
_cell_length_b                    12.5631
_cell_length_c                    14.0398
_cell_angle_alpha                 114.9600
_cell_angle_beta                  94.4830
_cell_angle_gamma                 104.3460
loop_
_atom_site_label
_atom_site_type_symbol
_atom_site_fract_x
_atom_site_fract_y
_atom_site_fract_z
_atom_site_U_iso_or_equiv
_atom_site_adp_type
_atom_site_occupancy
Ba1    Ba    0.54563   0.66071   0.17239   0.00000  Uiso   1.00
O2     O     0.32680   0.42940   0.01812   0.00000  Uiso   1.00
O3     O     0.20370   0.22540   0.92443   0.00000  Uiso   1.00
O4     O     0.64330   0.47560   0.20050   0.00000  Uiso   1.00
O5     O     0.66850   0.96180   0.12730   0.00000  Uiso   1.00
H6     H     0.71400   0.90430   0.11130   0.00000  Uiso   1.00
O7     O     0.88270   0.62450   0.22070   0.00000  Uiso   1.00
O8     O     0.41970   0.81090   0.09670   0.00000  Uiso   1.00
O9     O     0.57470   0.54120   0.67114   0.00000  Uiso   1.00
H10    H     0.49880   0.53960   0.70950   0.00000  Uiso   1.00
O11    O     0.51470   0.34200   0.63230   0.00000  Uiso   1.00
C12    C     0.22530   0.32770   0.00540   0.00000  Uiso   1.00
O13    O     0.22890   0.71450   0.21010   0.00000  Uiso   1.00
H14    H     0.24410   0.78690   0.21570   0.00000  Uiso   1.00
H15    H     0.12720   0.67890   0.21300   0.00000  Uiso   1.00
C16    C     0.11700   0.33210   0.09020   0.00000  Uiso   1.00
C17    C     0.49380   0.91610   0.11270   0.00000  Uiso   1.00
C18    C     0.66970   0.41460   0.52190   0.00000  Uiso   1.00
C19    C     0.80900   0.51800   0.20730   0.00000  Uiso   1.00
C20    C     0.10530   0.25700   0.14160   0.00000  Uiso   1.00
C21    C     0.38750   0.19830   0.12420   0.00000  Uiso   1.00
H22    H     0.44640   0.27450   0.12500   0.00000  Uiso   1.00
C23    C     0.58020   0.42890   0.61390   0.00000  Uiso   1.00
C24    C     0.48150   0.11720   0.12050   0.00000  Uiso   1.00
H25    H     0.60520   0.13910   0.12060   0.00000  Uiso   1.00
C26    C     0.02380   0.41790   0.11750   0.00000  Uiso   1.00
H27    H     0.03270   0.46880   0.08260   0.00000  Uiso   1.00
C28    C     0.66750   0.29790   0.44990   0.00000  Uiso   1.00
H29    H     0.61440   0.22930   0.46180   0.00000  Uiso   1.00
C30    C     0.82330   0.38020   0.34270   0.00000  Uiso   1.00
C31    C     0.83050   0.49840   0.41790   0.00000  Uiso   1.00
H32    H     0.88960   0.56790   0.40860   0.00000  Uiso   1.00
C33    C     0.00400   0.27510   0.22110   0.00000  Uiso   1.00
H34    H     0.99830   0.22620   0.25770   0.00000  Uiso   1.00
C35    C     0.39580   0.00460   0.11670   0.00000  Uiso   1.00
C36    C     0.91120   0.36080   0.24950   0.00000  Uiso   1.00
C37    C     0.91820   0.43210   0.19400   0.00000  Uiso   1.00
C38    C     0.75240   0.51540   0.50580   0.00000  Uiso   1.00
H39    H     0.75530   0.59610   0.55530   0.00000  Uiso   1.00
C40    C     0.74180   0.28010   0.36060   0.00000  Uiso   1.00
H41    H     0.73730   0.19900   0.31110   0.00000  Uiso   1.00
C42    C     0.20640   0.16780   0.12650   0.00000  Uiso   1.00
C43    C     0.21310   0.97090   0.11440   0.00000  Uiso   1.00
H44    H     0.15300   0.89240   0.10890   0.00000  Uiso   1.00
C45    C     0.12020   0.05270   0.12030   0.00000  Uiso   1.00
H46    H     0.99650   0.03050   0.12000   0.00000  Uiso   1.00
O47    O     0.75700   0.89330   0.32570   0.00000  Uiso   1.00
N48    N     0.04570   0.03580   0.39360   0.00000  Uiso   1.00
C49    C     0.92770   0.92340   0.33000   0.00000  Uiso   1.00
H50    H     0.97300   0.86100   0.28460   0.00000  Uiso   1.00
C51    C     0.98560   0.13750   0.46170   0.00000  Uiso   1.00
H52    H     0.97800   0.18950   0.42660   0.00000  Uiso   1.00
H53    H     0.07030   0.18690   0.53080   0.00000  Uiso   1.00
H54    H     0.86790   0.10460   0.47370   0.00000  Uiso   1.00
C55    C     0.23210   0.05700   0.39650   0.00000  Uiso   1.00
H56    H     0.25210   0.98080   0.34640   0.00000  Uiso   1.00
H57    H     0.29450   0.08260   0.46940   0.00000  Uiso   1.00
H58    H     0.27750   0.12230   0.37550   0.00000  Uiso   1.00
Ba59   Ba    0.45437   0.33929   0.82761   0.00000  Uiso   1.00
O60    O     0.67320   0.57060   0.98188   0.00000  Uiso   1.00
O61    O     0.79630   0.77460   0.07557   0.00000  Uiso   1.00
O62    O     0.35670   0.52440   0.79950   0.00000  Uiso   1.00
O63    O     0.33150   0.03820   0.87270   0.00000  Uiso   1.00
H64    H     0.28600   0.09570   0.88870   0.00000  Uiso   1.00
O65    O     0.11730   0.37550   0.77930   0.00000  Uiso   1.00
O66    O     0.58030   0.18910   0.90330   0.00000  Uiso   1.00
O67    O     0.42530   0.45880   0.32886   0.00000  Uiso   1.00
H68    H     0.50120   0.46040   0.29050   0.00000  Uiso   1.00
O69    O     0.48530   0.65800   0.36770   0.00000  Uiso   1.00
C70    C     0.77470   0.67230   0.99460   0.00000  Uiso   1.00
O71    O     0.77110   0.28550   0.78990   0.00000  Uiso   1.00
H72    H     0.75590   0.21310   0.78430   0.00000  Uiso   1.00
H73    H     0.87280   0.32110   0.78700   0.00000  Uiso   1.00
C74    C     0.88300   0.66790   0.90980   0.00000  Uiso   1.00
C75    C     0.50620   0.08390   0.88730   0.00000  Uiso   1.00
C76    C     0.33030   0.58540   0.47810   0.00000  Uiso   1.00
C77    C     0.19100   0.48200   0.79270   0.00000  Uiso   1.00
C78    C     0.89470   0.74300   0.85840   0.00000  Uiso   1.00
C79    C     0.61250   0.80170   0.87580   0.00000  Uiso   1.00
H80    H     0.55360   0.72550   0.87500   0.00000  Uiso   1.00
C81    C     0.41980   0.57110   0.38610   0.00000  Uiso   1.00
C82    C     0.51850   0.88280   0.87950   0.00000  Uiso   1.00
H83    H     0.39480   0.86090   0.87940   0.00000  Uiso   1.00
C84    C     0.97620   0.58210   0.88250   0.00000  Uiso   1.00
H85    H     0.96730   0.53120   0.91740   0.00000  Uiso   1.00
C86    C     0.33250   0.70210   0.55010   0.00000  Uiso   1.00
H87    H     0.38560   0.77070   0.53820   0.00000  Uiso   1.00
C88    C     0.17670   0.61980   0.65730   0.00000  Uiso   1.00
C89    C     0.16950   0.50160   0.58210   0.00000  Uiso   1.00
H90    H     0.11040   0.43210   0.59140   0.00000  Uiso   1.00
C91    C     0.99600   0.72490   0.77890   0.00000  Uiso   1.00
H92    H     0.00170   0.77380   0.74230   0.00000  Uiso   1.00
C93    C     0.60420   0.99540   0.88330   0.00000  Uiso   1.00
C94    C     0.08880   0.63920   0.75050   0.00000  Uiso   1.00
C95    C     0.08180   0.56790   0.80600   0.00000  Uiso   1.00
C96    C     0.24760   0.48460   0.49420   0.00000  Uiso   1.00
H97    H     0.24470   0.40390   0.44470   0.00000  Uiso   1.00
C98    C     0.25820   0.71990   0.63940   0.00000  Uiso   1.00
H99    H     0.26270   0.80100   0.68890   0.00000  Uiso   1.00
C100   C     0.79360   0.83220   0.87350   0.00000  Uiso   1.00
C101   C     0.78690   0.02910   0.88560   0.00000  Uiso   1.00
H102   H     0.84700   0.10760   0.89110   0.00000  Uiso   1.00
C103   C     0.87980   0.94730   0.87970   0.00000  Uiso   1.00
H104   H     0.00350   0.96950   0.88000   0.00000  Uiso   1.00
O105   O     0.24300   0.10670   0.67430   0.00000  Uiso   1.00
N106   N     0.95430   0.96420   0.60640   0.00000  Uiso   1.00
C107   C     0.07230   0.07660   0.67000   0.00000  Uiso   1.00
H108   H     0.02700   0.13900   0.71540   0.00000  Uiso   1.00
C109   C     0.01440   0.86250   0.53830   0.00000  Uiso   1.00
H110   H     0.02200   0.81050   0.57340   0.00000  Uiso   1.00
H111   H     0.92970   0.81310   0.46920   0.00000  Uiso   1.00
H112   H     0.13210   0.89540   0.52630   0.00000  Uiso   1.00
C113   C     0.76790   0.94300   0.60350   0.00000  Uiso   1.00
H114   H     0.74790   0.01920   0.65360   0.00000  Uiso   1.00
H115   H     0.70550   0.91740   0.53060   0.00000  Uiso   1.00
H116   H     0.72250   0.87770   0.62450   0.00000  Uiso   1.00
loop_
_geom_bond_atom_site_label_1
_geom_bond_atom_site_label_2
_geom_bond_distance
_geom_bond_site_symmetry_2
_ccdc_geom_bond_type
Ba1    O2      2.783   .     S
Ba1    O13     2.789   .     S
Ba1    O47     2.771   .     S
Ba1    O60     2.809   1_554 S
Ba1    O61     2.915   .     S
Ba1    O4      2.790   .     S
Ba1    O7      2.894   .     S
Ba1    O8      2.854   .     S
Ba1    O69     2.833   .     S
O2     C12     1.260   .     S
O2     Ba59    2.809   1_554 S
O3     C12     1.265   1_556 S
O3     Ba59    2.915   .     S
O4     C19     1.268   .     S
O5     H6      0.841   .     S
O5     C17     1.323   .     S
O7     C19     1.245   .     S
O8     C17     1.219   .     S
O9     H10     0.840   .     S
O9     C23     1.310   .     S
O11    C23     1.227   .     S
O11    Ba59    2.833   .     S
C12    O3      1.265   1_554 S
C12    C16     1.511   .     S
O13    H14     0.856   .     S
O13    H15     0.832   .     S
C16    C20     1.400   .     S
C16    C26     1.394   .     S
C17    C35     1.491   1_565 S
C18    C23     1.488   .     S
C18    C28     1.380   .     S
C18    C38     1.392   .     S
C19    C37     1.505   .     S
C20    C33     1.399   .     S
C20    C42     1.488   .     S
C21    H22     0.950   .     S
C21    C24     1.390   .     S
C21    C42     1.397   .     S
C24    H25     0.950   .     S
C24    C35     1.386   .     S
C26    H27     0.949   .     S
C26    C37     1.392   1_455 S
C28    H29     0.949   .     S
C28    C40     1.383   .     S
C30    C31     1.396   .     S
C30    C36     1.488   .     S
C30    C40     1.397   .     S
C31    H32     0.950   .     S
C31    C38     1.383   .     S
C33    H34     0.949   1_455 S
C33    C36     1.391   1_455 S
H34    C33     0.949   1_655 S
C35    C17     1.491   1_545 S
C35    C43     1.397   1_545 S
C36    C33     1.391   1_655 S
C36    C37     1.408   .     S
C37    C26     1.392   1_655 S
C38    H39     0.950   .     S
C40    H41     0.950   .     S
C42    C45     1.400   .     S
C43    C35     1.397   1_565 S
C43    H44     0.950   .     S
C43    C45     1.385   1_565 S
C45    H46     0.949   1_455 S
C45    C43     1.385   1_545 S
H46    C45     0.949   1_655 S
O47    C49     1.300   .     S
N48    C49     1.348   1_445 S
N48    C51     1.454   1_455 S
N48    C55     1.428   .     S
C49    N48     1.348   1_665 S
C49    H50     0.950   .     S
C51    N48     1.454   1_655 S
C51    H52     0.980   .     S
C51    H53     0.980   1_655 S
C51    H54     0.980   .     S
H53    C51     0.980   1_455 S
C55    H56     0.980   1_545 S
C55    H57     0.980   .     S
C55    H58     0.982   .     S
H56    C55     0.980   1_565 S
Ba59   O60     2.783   .     S
Ba59   O71     2.789   .     S
Ba59   O105    2.771   .     S
Ba59   O2      2.809   1_556 S
Ba59   O62     2.790   .     S
Ba59   O65     2.894   .     S
Ba59   O66     2.854   .     S
O60    C70     1.260   .     S
O60    Ba1     2.809   1_556 S
O61    C70     1.265   1_554 S
O62    C77     1.268   .     S
O63    H64     0.841   .     S
O63    C75     1.323   .     S
O65    C77     1.245   .     S
O66    C75     1.219   .     S
O67    H68     0.840   .     S
O67    C81     1.310   .     S
O69    C81     1.227   .     S
C70    O61     1.265   1_556 S
C70    C74     1.511   .     S
O71    H72     0.856   .     S
O71    H73     0.832   .     S
C74    C78     1.400   .     S
C74    C84     1.394   .     S
C75    C93     1.491   1_545 S
C76    C81     1.488   .     S
C76    C86     1.380   .     S
C76    C96     1.392   .     S
C77    C95     1.505   .     S
C78    C91     1.399   .     S
C78    C100    1.488   .     S
C79    H80     0.950   .     S
C79    C82     1.390   .     S
C79    C100    1.397   .     S
C82    H83     0.950   .     S
C82    C93     1.386   .     S
C84    H85     0.949   .     S
C84    C95     1.392   1_655 S
C86    H87     0.949   .     S
C86    C98     1.383   .     S
C88    C89     1.396   .     S
C88    C94     1.488   .     S
C88    C98     1.397   .     S
C89    H90     0.950   .     S
C89    C96     1.383   .     S
C91    H92     0.949   1_655 S
C91    C94     1.391   1_655 S
H92    C91     0.949   1_455 S
C93    C75     1.491   1_565 S
C93    C101    1.397   1_565 S
C94    C91     1.391   1_455 S
C94    C95     1.408   .     S
C95    C84     1.392   1_455 S
C96    H97     0.950   .     S
C98    H99     0.950   .     S
C100   C103    1.400   .     S
C101   C93     1.397   1_545 S
C101   H102    0.950   .     S
C101   C103    1.385   1_545 S
C103   H104    0.949   1_655 S
C103   C101    1.385   1_565 S
H104   C103    0.949   1_455 S
O105   C107    1.300   .     S
N106   C107    1.348   1_665 S
N106   C109    1.454   1_655 S
N106   C113    1.428   .     S
C107   N106    1.348   1_445 S
C107   H108    0.950   .     S
C109   N106    1.454   1_455 S
C109   H110    0.980   .     S
C109   H111    0.980   1_455 S
C109   H112    0.980   .     S
H111   C109    0.980   1_655 S
C113   H114    0.980   1_565 S
C113   H115    0.980   .     S
C113   H116    0.982   .     S
H114   C113    0.980   1_545 S
