data_RIMRUD_direct
_audit_creation_date              2024-06-11
_audit_creation_method            'Materials Studio'
_symmetry_space_group_name_H-M    'P1'
_symmetry_Int_Tables_number       1
_symmetry_cell_setting            triclinic
loop_
_symmetry_equiv_pos_as_xyz
  x,y,z
_cell_length_a                    11.4435
_cell_length_b                    17.2735
_cell_length_c                    14.1871
_cell_angle_alpha                 90.0000
_cell_angle_beta                  92.3020
_cell_angle_gamma                 90.0000
loop_
_atom_site_label
_atom_site_type_symbol
_atom_site_fract_x
_atom_site_fract_y
_atom_site_fract_z
_atom_site_U_iso_or_equiv
_atom_site_adp_type
_atom_site_occupancy
Ba1    Ba    0.61890   0.19202   0.37466   0.00000  Uiso   1.00
Ba2    Ba    0.50005   0.61283   0.40679   0.00000  Uiso   1.00
O3     O     0.56606   0.68433   0.24163   0.00000  Uiso   1.00
O4     O     0.68823   0.08786   0.22879   0.00000  Uiso   1.00
O5     O     0.66032   0.04404   0.37153   0.00000  Uiso   1.00
O6     O     0.60578   0.64491   0.10271   0.00000  Uiso   1.00
O7     O     0.56354   0.23719   0.19399   0.00000  Uiso   1.00
O8     O     0.56255   0.25891   0.04736   0.00000  Uiso   1.00
O9     O     0.56403   0.33942   0.42084   0.00000  Uiso   1.00
O10    O     0.72480   0.64387   0.46201   0.00000  Uiso   1.00
H11    H     0.75496   0.59427   0.48809   0.00000  Uiso   1.00
H12    H     0.71358   0.67688   0.51788   0.00000  Uiso   1.00
C13    C     0.82890   0.85232   0.18940   0.00000  Uiso   1.00
H14    H     0.89751   0.84157   0.14134   0.00000  Uiso   1.00
C15    C     1.01284   0.63726   0.24627   0.00000  Uiso   1.00
H16    H     1.10606   0.63472   0.25893   0.00000  Uiso   1.00
C17    C     0.74081   0.36159   0.22046   0.00000  Uiso   1.00
H18    H     0.75952   0.31291   0.26671   0.00000  Uiso   1.00
C19    C     0.79386   0.92848   0.20306   0.00000  Uiso   1.00
H20    H     0.83917   0.97342   0.16657   0.00000  Uiso   1.00
C21    C     0.66655   0.88605   0.32453   0.00000  Uiso   1.00
H22    H     0.60765   0.89855   0.38030   0.00000  Uiso   1.00
O23    O     0.84551   0.21839   0.42085   0.00000  Uiso   1.00
C24    C     0.95577   0.70751   0.25316   0.00000  Uiso   1.00
H25    H     1.00694   0.75833   0.27248   0.00000  Uiso   1.00
C26    C     0.77067   0.49771   0.18144   0.00000  Uiso   1.00
C27    C     0.69853   0.48732   0.10010   0.00000  Uiso   1.00
H28    H     0.68958   0.53190   0.04719   0.00000  Uiso   1.00
C29    C     0.68673   0.02763   0.29303   0.00000  Uiso   1.00
C30    C     0.83458   0.71314   0.23551   0.00000  Uiso   1.00
C31    C     0.95098   0.57082   0.22167   0.00000  Uiso   1.00
H32    H     0.99871   0.51700   0.21655   0.00000  Uiso   1.00
C33    C     0.70315   0.80973   0.31159   0.00000  Uiso   1.00
H34    H     0.67387   0.76564   0.35919   0.00000  Uiso   1.00
C35    C     0.82963   0.57312   0.20279   0.00000  Uiso   1.00
C36    C     0.63885   0.41778   0.08461   0.00000  Uiso   1.00
H37    H     0.57675   0.41324   0.02544   0.00000  Uiso   1.00
C38    C     0.76949   0.64567   0.20859   0.00000  Uiso   1.00
C39    C     0.78270   0.79172   0.24212   0.00000  Uiso   1.00
C40    C     0.79410   0.43309   0.23998   0.00000  Uiso   1.00
H41    H     0.85286   0.43811   0.30145   0.00000  Uiso   1.00
C42    C     0.59183   0.28283   0.12907   0.00000  Uiso   1.00
C43    C     0.55490   0.40266   0.37654   0.00000  Uiso   1.00
H44    H     0.56089   0.40794   0.30159   0.00000  Uiso   1.00
C45    C     0.65835   0.35475   0.14514   0.00000  Uiso   1.00
N46    N     0.99640   0.16438   0.50595   0.00000  Uiso   1.00
C47    C     0.64305   0.65207   0.18224   0.00000  Uiso   1.00
C48    C     0.71124   0.94621   0.26986   0.00000  Uiso   1.00
C49    C     1.07102   0.23284   0.50327   0.00000  Uiso   1.00
H50    H     1.10849   0.24528   0.57449   0.00000  Uiso   1.00
H51    H     1.02107   0.28491   0.48020   0.00000  Uiso   1.00
H52    H     1.14393   0.22182   0.45619   0.00000  Uiso   1.00
C53    C     1.04096   0.09635   0.55716   0.00000  Uiso   1.00
H54    H     1.12246   0.07571   0.52555   0.00000  Uiso   1.00
H55    H     0.97642   0.04838   0.55550   0.00000  Uiso   1.00
H56    H     1.05953   0.11170   0.63202   0.00000  Uiso   1.00
C57    C     0.88523   0.16383   0.46636   0.00000  Uiso   1.00
H58    H     0.82971   0.11412   0.47577   0.00000  Uiso   1.00
O59    O     0.26583   0.59101   0.38422   0.00000  Uiso   1.00
H60    H     0.23247   0.63948   0.40990   0.00000  Uiso   1.00
H61    H     0.25364   0.55352   0.43592   0.00000  Uiso   1.00
O62    O     0.53606   0.45988   0.42830   0.00000  Uiso   1.00
Ba63   Ba    0.38110   0.69202   0.12534   0.00000  Uiso   1.00
Ba64   Ba    0.49995   0.11283   0.09321   0.00000  Uiso   1.00
O65    O     0.43394   0.18433   0.25837   0.00000  Uiso   1.00
O66    O     0.31177   0.58786   0.27121   0.00000  Uiso   1.00
O67    O     0.33968   0.54404   0.12847   0.00000  Uiso   1.00
O68    O     0.39422   0.14491   0.39729   0.00000  Uiso   1.00
O69    O     0.43646   0.73719   0.30601   0.00000  Uiso   1.00
O70    O     0.43745   0.75891   0.45264   0.00000  Uiso   1.00
O71    O     0.43597   0.83942   0.07916   0.00000  Uiso   1.00
O72    O     0.27520   0.14387   1.03799   0.00000  Uiso   1.00
H73    H     0.24504   0.09427   1.01191   0.00000  Uiso   1.00
H74    H     0.28642   0.17688   0.98212   0.00000  Uiso   1.00
C75    C     0.17110   0.35232   0.31060   0.00000  Uiso   1.00
H76    H     0.10249   0.34157   0.35866   0.00000  Uiso   1.00
C77    C    -0.01284   0.13726   0.25373   0.00000  Uiso   1.00
H78    H    -0.10606   0.13472   0.24107   0.00000  Uiso   1.00
C79    C     0.25919   0.86159   0.27954   0.00000  Uiso   1.00
H80    H     0.24048   0.81291   0.23329   0.00000  Uiso   1.00
C81    C     0.20614   0.42848   0.29694   0.00000  Uiso   1.00
H82    H     0.16083   0.47342   0.33343   0.00000  Uiso   1.00
C83    C     0.33345   0.38605   0.17547   0.00000  Uiso   1.00
H84    H     0.39235   0.39855   0.11970   0.00000  Uiso   1.00
O85    O     0.15449   0.71839   0.07915   0.00000  Uiso   1.00
C86    C     0.04423   0.20751   0.24684   0.00000  Uiso   1.00
H87    H    -0.00694   0.25833   0.22752   0.00000  Uiso   1.00
C88    C     0.22933  -0.00229   0.31856   0.00000  Uiso   1.00
C89    C     0.30147  -0.01268   0.39990   0.00000  Uiso   1.00
H90    H     0.31042   0.03190   0.45281   0.00000  Uiso   1.00
C91    C     0.31327   0.52763   0.20697   0.00000  Uiso   1.00
C92    C     0.16542   0.21314   0.26449   0.00000  Uiso   1.00
C93    C     0.04902   0.07082   0.27833   0.00000  Uiso   1.00
H94    H     0.00129   0.01700   0.28345   0.00000  Uiso   1.00
C95    C     0.29685   0.30973   0.18841   0.00000  Uiso   1.00
H96    H     0.32613   0.26564   0.14081   0.00000  Uiso   1.00
C97    C     0.17037   0.07312   0.29721   0.00000  Uiso   1.00
C98    C     0.36115   0.91778   0.41539   0.00000  Uiso   1.00
H99    H     0.42325   0.91324   0.47456   0.00000  Uiso   1.00
C100   C     0.23051   0.14567   0.29141   0.00000  Uiso   1.00
C101   C     0.21730   0.29172   0.25788   0.00000  Uiso   1.00
C102   C     0.20590   0.93309   0.26002   0.00000  Uiso   1.00
H103   H     0.14714   0.93811   0.19855   0.00000  Uiso   1.00
C104   C     0.40817   0.78283   0.37093   0.00000  Uiso   1.00
C105   C     0.44510   0.90266   0.12346   0.00000  Uiso   1.00
H106   H     0.43911   0.90794   0.19841   0.00000  Uiso   1.00
C107   C     0.34165   0.85475   0.35486   0.00000  Uiso   1.00
N108   N     0.00360   0.66438  -0.00595   0.00000  Uiso   1.00
C109   C     0.35695   0.15207   0.31776   0.00000  Uiso   1.00
C110   C     0.28876   0.44621   0.23014   0.00000  Uiso   1.00
C111   C    -0.07102   0.73284  -0.00327   0.00000  Uiso   1.00
H112   H    -0.10849   0.74528   0.92551   0.00000  Uiso   1.00
H113   H    -0.02107   0.78491   0.01980   0.00000  Uiso   1.00
H114   H    -0.14393   0.72182   0.04381   0.00000  Uiso   1.00
C115   C    -0.04096   0.59635   0.94284   0.00000  Uiso   1.00
H116   H    -0.12246   0.57571   0.97445   0.00000  Uiso   1.00
H117   H     0.02358   0.54838   0.94450   0.00000  Uiso   1.00
H118   H    -0.05953   0.61170   0.86798   0.00000  Uiso   1.00
C119   C     0.11477   0.66383   0.03364   0.00000  Uiso   1.00
H120   H     0.17029   0.61412   0.02423   0.00000  Uiso   1.00
O121   O     0.73417   0.09101   0.11578   0.00000  Uiso   1.00
H122   H     0.76753   0.13948   0.09010   0.00000  Uiso   1.00
H123   H     0.74636   0.05352   1.06408   0.00000  Uiso   1.00
O124   O     0.46394   0.95988   0.07170   0.00000  Uiso   1.00
Ba125  Ba    0.38110   0.80798   0.62534   0.00000  Uiso   1.00
Ba126  Ba    0.49995   0.38717   0.59321   0.00000  Uiso   1.00
O127   O     0.43394   0.31567   0.75837   0.00000  Uiso   1.00
O128   O     0.31177   0.91214   0.77121   0.00000  Uiso   1.00
O129   O     0.33968   0.95596   0.62847   0.00000  Uiso   1.00
O130   O     0.39422   0.35509   0.89729   0.00000  Uiso   1.00
O131   O     0.43646   0.76281   0.80601   0.00000  Uiso   1.00
O132   O     0.43745   0.74109   0.95264   0.00000  Uiso   1.00
O133   O     0.43597   0.66058   0.57916   0.00000  Uiso   1.00
O134   O     0.27520   0.35613   0.53799   0.00000  Uiso   1.00
H135   H     0.24504   0.40573   0.51191   0.00000  Uiso   1.00
H136   H     0.28642   0.32312   0.48212   0.00000  Uiso   1.00
C137   C     0.17110   0.14768   0.81060   0.00000  Uiso   1.00
H138   H     0.10249   0.15843   0.85866   0.00000  Uiso   1.00
C139   C    -0.01284   0.36274   0.75373   0.00000  Uiso   1.00
H140   H    -0.10606   0.36528   0.74107   0.00000  Uiso   1.00
C141   C     0.25919   0.63841   0.77954   0.00000  Uiso   1.00
H142   H     0.24048   0.68709   0.73329   0.00000  Uiso   1.00
C143   C     0.20614   0.07152   0.79694   0.00000  Uiso   1.00
H144   H     0.16083   0.02658   0.83343   0.00000  Uiso   1.00
C145   C     0.33345   0.11395   0.67547   0.00000  Uiso   1.00
H146   H     0.39235   0.10145   0.61970   0.00000  Uiso   1.00
O147   O     0.15449   0.78161   0.57915   0.00000  Uiso   1.00
C148   C     0.04423   0.29249   0.74684   0.00000  Uiso   1.00
H149   H    -0.00694   0.24167   0.72752   0.00000  Uiso   1.00
C150   C     0.22933   0.50229   0.81856   0.00000  Uiso   1.00
C151   C     0.30147   0.51268   0.89990   0.00000  Uiso   1.00
H152   H     0.31042   0.46810   0.95281   0.00000  Uiso   1.00
C153   C     0.31327   0.97237   0.70697   0.00000  Uiso   1.00
C154   C     0.16542   0.28686   0.76449   0.00000  Uiso   1.00
C155   C     0.04902   0.42918   0.77833   0.00000  Uiso   1.00
H156   H     0.00129   0.48300   0.78345   0.00000  Uiso   1.00
C157   C     0.29685   0.19027   0.68841   0.00000  Uiso   1.00
H158   H     0.32613   0.23436   0.64081   0.00000  Uiso   1.00
C159   C     0.17037   0.42688   0.79721   0.00000  Uiso   1.00
C160   C     0.36115   0.58222   0.91539   0.00000  Uiso   1.00
H161   H     0.42325   0.58676   0.97456   0.00000  Uiso   1.00
C162   C     0.23051   0.35433   0.79141   0.00000  Uiso   1.00
C163   C     0.21730   0.20828   0.75788   0.00000  Uiso   1.00
C164   C     0.20590   0.56691   0.76002   0.00000  Uiso   1.00
H165   H     0.14714   0.56189   0.69855   0.00000  Uiso   1.00
C166   C     0.40817   0.71717   0.87093   0.00000  Uiso   1.00
C167   C     0.44510   0.59734   0.62346   0.00000  Uiso   1.00
H168   H     0.43911   0.59206   0.69841   0.00000  Uiso   1.00
C169   C     0.34165   0.64525   0.85486   0.00000  Uiso   1.00
N170   N     0.00360   0.83562   0.49405   0.00000  Uiso   1.00
C171   C     0.35695   0.34793   0.81776   0.00000  Uiso   1.00
C172   C     0.28876   0.05379   0.73014   0.00000  Uiso   1.00
C173   C    -0.07102   0.76716   0.49673   0.00000  Uiso   1.00
H174   H    -0.10849   0.75472   0.42551   0.00000  Uiso   1.00
H175   H    -0.02107   0.71509   0.51980   0.00000  Uiso   1.00
H176   H    -0.14393   0.77818   0.54381   0.00000  Uiso   1.00
C177   C    -0.04096   0.90365   0.44284   0.00000  Uiso   1.00
H178   H    -0.12246   0.92429   0.47445   0.00000  Uiso   1.00
H179   H     0.02358   0.95162   0.44450   0.00000  Uiso   1.00
H180   H    -0.05953   0.88830   0.36798   0.00000  Uiso   1.00
C181   C     0.11477   0.83617   0.53364   0.00000  Uiso   1.00
H182   H     0.17029   0.88588   0.52423   0.00000  Uiso   1.00
O183   O     0.73417   0.40899   0.61578   0.00000  Uiso   1.00
H184   H     0.76753   0.36052   0.59010   0.00000  Uiso   1.00
H185   H     0.74636   0.44648   0.56408   0.00000  Uiso   1.00
O186   O     0.46394   0.54012   0.57170   0.00000  Uiso   1.00
Ba187  Ba    0.61890   0.30798   0.87466   0.00000  Uiso   1.00
Ba188  Ba    0.50005   0.88717   0.90679   0.00000  Uiso   1.00
O189   O     0.56606   0.81567   0.74163   0.00000  Uiso   1.00
O190   O     0.68823   0.41214   0.72879   0.00000  Uiso   1.00
O191   O     0.66032   0.45596   0.87153   0.00000  Uiso   1.00
O192   O     0.60578   0.85509   0.60271   0.00000  Uiso   1.00
O193   O     0.56354   0.26281   0.69399   0.00000  Uiso   1.00
O194   O     0.56255   0.24109   0.54736   0.00000  Uiso   1.00
O195   O     0.56403   0.16058   0.92084   0.00000  Uiso   1.00
O196   O     0.72480   0.85613  -0.03799   0.00000  Uiso   1.00
H197   H     0.75496   0.90573  -0.01191   0.00000  Uiso   1.00
H198   H     0.71358   0.82312   0.01788   0.00000  Uiso   1.00
C199   C     0.82890   0.64768   0.68940   0.00000  Uiso   1.00
H200   H     0.89751   0.65843   0.64134   0.00000  Uiso   1.00
C201   C     1.01284   0.86274   0.74627   0.00000  Uiso   1.00
H202   H     1.10606   0.86528   0.75893   0.00000  Uiso   1.00
C203   C     0.74081   0.13841   0.72046   0.00000  Uiso   1.00
H204   H     0.75952   0.18709   0.76671   0.00000  Uiso   1.00
C205   C     0.79386   0.57152   0.70306   0.00000  Uiso   1.00
H206   H     0.83917   0.52658   0.66657   0.00000  Uiso   1.00
C207   C     0.66655   0.61395   0.82453   0.00000  Uiso   1.00
H208   H     0.60765   0.60145   0.88030   0.00000  Uiso   1.00
O209   O     0.84551   0.28161   0.92085   0.00000  Uiso   1.00
C210   C     0.95577   0.79249   0.75316   0.00000  Uiso   1.00
H211   H     1.00694   0.74167   0.77248   0.00000  Uiso   1.00
C212   C     0.77067   1.00229   0.68144   0.00000  Uiso   1.00
C213   C     0.69853   1.01268   0.60010   0.00000  Uiso   1.00
H214   H     0.68958   0.96810   0.54719   0.00000  Uiso   1.00
C215   C     0.68673   0.47237   0.79303   0.00000  Uiso   1.00
C216   C     0.83458   0.78686   0.73551   0.00000  Uiso   1.00
C217   C     0.95098   0.92918   0.72167   0.00000  Uiso   1.00
H218   H     0.99871   0.98300   0.71655   0.00000  Uiso   1.00
C219   C     0.70315   0.69027   0.81159   0.00000  Uiso   1.00
H220   H     0.67387   0.73436   0.85919   0.00000  Uiso   1.00
C221   C     0.82963   0.92688   0.70279   0.00000  Uiso   1.00
C222   C     0.63885   0.08222   0.58461   0.00000  Uiso   1.00
H223   H     0.57675   0.08676   0.52544   0.00000  Uiso   1.00
C224   C     0.76949   0.85433   0.70859   0.00000  Uiso   1.00
C225   C     0.78270   0.70828   0.74212   0.00000  Uiso   1.00
C226   C     0.79410   0.06691   0.73998   0.00000  Uiso   1.00
H227   H     0.85286   0.06189   0.80145   0.00000  Uiso   1.00
C228   C     0.59183   0.21717   0.62907   0.00000  Uiso   1.00
C229   C     0.55490   0.09734   0.87654   0.00000  Uiso   1.00
H230   H     0.56089   0.09206   0.80159   0.00000  Uiso   1.00
C231   C     0.65835   0.14525   0.64514   0.00000  Uiso   1.00
N232   N     0.99640   0.33562   1.00595   0.00000  Uiso   1.00
C233   C     0.64305   0.84793   0.68224   0.00000  Uiso   1.00
C234   C     0.71124   0.55379   0.76986   0.00000  Uiso   1.00
C235   C     1.07102   0.26716   1.00327   0.00000  Uiso   1.00
H236   H     1.10849   0.25472   0.07449   0.00000  Uiso   1.00
H237   H     1.02107   0.21509   0.98020   0.00000  Uiso   1.00
H238   H     1.14393   0.27818   0.95619   0.00000  Uiso   1.00
C239   C     1.04096   0.40365   0.05716   0.00000  Uiso   1.00
H240   H     1.12246   0.42429   0.02555   0.00000  Uiso   1.00
H241   H     0.97642   0.45162   0.05550   0.00000  Uiso   1.00
H242   H     1.05953   0.38830   0.13202   0.00000  Uiso   1.00
C243   C     0.88523   0.33617   0.96636   0.00000  Uiso   1.00
H244   H     0.82971   0.38588   0.97577   0.00000  Uiso   1.00
O245   O     0.26583   0.90899   0.88422   0.00000  Uiso   1.00
H246   H     0.23247   0.86052   0.90990   0.00000  Uiso   1.00
H247   H     0.25364   0.94648  -0.06408   0.00000  Uiso   1.00
O248   O     0.53606   0.04012   0.92830   0.00000  Uiso   1.00
loop_
_geom_bond_atom_site_label_1
_geom_bond_atom_site_label_2
_geom_bond_distance
_geom_bond_site_symmetry_2
_ccdc_geom_bond_type
Ba1    O4      2.878   .     S
Ba1    O5      2.600   .     S
Ba1    O7      2.729   .     S
Ba1    O9      2.709   .     S
Ba1    O23     2.688   .     S
Ba1    C29     3.175   .     S
Ba1    Ba64    4.385   .     S
Ba1    O65     2.634   .     S
Ba1    O68     2.728   .     S
Ba1    C109    3.149   .     S
Ba1    Ba126   4.813   .     S
Ba1    O194    2.695   .     S
Ba2    O3      2.780   .     S
Ba2    O10     2.712   .     S
Ba2    O59     2.713   .     S
Ba2    O62     2.689   .     S
Ba2    Ba63    4.385   .     S
Ba2    O66     2.863   .     S
Ba2    O69     2.666   .     S
Ba2    O70     2.709   .     S
Ba2    Ba125   4.813   .     S
Ba2    O133    2.710   .     S
Ba2    O186    2.702   .     S
O3     C47     1.362   .     S
O3     Ba63    2.634   .     S
O4     C29     1.384   .     S
O4     Ba64    2.863   .     S
O5     C29     1.200   .     D
O6     C47     1.196   .     D
O6     Ba63    2.728   .     S
O7     C42     1.264   .     D
O7     Ba64    2.666   .     S
O8     C42     1.263   .     S
O8     Ba64    2.709   .     S
O8     Ba187   2.695   1_554 S
O9     C43     1.262   .     S
O9     Ba126   2.710   .     S
O10    H11     0.990   .     S
O10    H12     0.989   .     S
C13    H14     1.077   .     S
C13    C19     1.391   .     D
C13    C39     1.402   .     S
C15    H16     1.076   .     S
C15    C24     1.383   .     D
C15    C31     1.386   .     S
C17    H18     1.083   .     S
C17    C40     1.400   .     S
C17    C45     1.402   .     D
C19    H20     1.077   .     S
C19    C48     1.399   .     S
C21    H22     1.082   .     S
C21    C33     1.398   .     S
C21    C48     1.405   .     D
O23    C57     1.220   .     D
C24    H25     1.084   .     S
C24    C30     1.403   .     S
C26    C27     1.403   .     S
C26    C35     1.492   .     S
C26    C40     1.411   .     D
C27    H28     1.077   .     S
C27    C36     1.395   .     D
C29    C48     1.474   1_545 S
C30    C38     1.427   .     D
C30    C39     1.486   .     S
C31    H32     1.082   .     S
C31    C35     1.404   .     D
C33    H34     1.080   .     S
C33    C39     1.403   .     D
C35    C38     1.434   .     S
C36    H37     1.081   .     S
C36    C45     1.399   .     S
C38    C47     1.484   .     S
C40    H41     1.083   .     S
C42    C45     1.470   .     S
C43    H44     1.072   .     S
C43    O62     1.255   .     D
N46    C49     1.460   .     S
N46    C53     1.463   .     S
N46    C57     1.370   .     S
C47    Ba63    3.149   .     S
C48    C29     1.474   1_565 S
C49    H50     1.103   .     S
C49    H51     1.108   .     S
C49    H52     1.106   .     S
C53    H54     1.110   .     S
C53    H55     1.109   .     S
C53    H56     1.107   .     S
C57    H58     1.080   .     S
O59    H60     0.995   .     S
O59    H61     0.992   .     S
O62    Ba126   2.702   .     S
Ba63   O66     2.878   .     S
Ba63   O67     2.600   .     S
Ba63   O69     2.729   .     S
Ba63   O71     2.709   .     S
Ba63   O85     2.688   .     S
Ba63   C91     3.175   .     S
Ba63   O132    2.695   1_554 S
Ba63   Ba188   4.813   1_554 S
Ba64   O65     2.780   .     S
Ba64   O72     2.712   1_554 S
Ba64   O121    2.713   .     S
Ba64   O124    2.689   1_545 S
Ba64   Ba187   4.813   1_554 S
Ba64   O195    2.710   1_554 S
Ba64   O248    2.702   1_554 S
O65    C109    1.362   .     S
O66    C91     1.384   .     S
O67    C91     1.200   .     D
O68    C109    1.196   .     D
O69    C104    1.264   .     D
O70    C104    1.263   .     S
O70    Ba125   2.695   .     S
O71    C105    1.262   .     S
O71    Ba188   2.710   1_554 S
O72    H73     0.990   .     S
O72    H74     0.989   .     S
O72    Ba64    2.712   1_556 S
C75    H76     1.077   .     S
C75    C81     1.391   .     S
C75    C101    1.402   .     D
C77    H78     1.076   .     S
C77    C86     1.383   .     S
C77    C93     1.386   .     D
C79    H80     1.083   .     S
C79    C102    1.400   .     D
C79    C107    1.402   .     S
C81    H82     1.077   .     S
C81    C110    1.399   .     D
C83    H84     1.082   .     S
C83    C95     1.398   .     D
C83    C110    1.405   .     S
O85    C119    1.220   .     D
C86    H87     1.084   .     S
C86    C92     1.403   .     D
C88    C89     1.403   .     D
C88    C97     1.492   .     S
C88    C102    1.411   1_545 S
C89    H90     1.077   .     S
C89    C98     1.395   1_545 S
C91    C110    1.474   .     S
C92    C100    1.427   .     S
C92    C101    1.486   .     S
C93    H94     1.082   .     S
C93    C97     1.404   .     S
C95    H96     1.080   .     S
C95    C101    1.403   .     S
C97    C100    1.434   .     D
C98    C89     1.395   1_565 S
C98    H99     1.081   .     S
C98    C107    1.399   .     D
C100   C109    1.484   .     S
C102   H103    1.083   .     S
C102   C88     1.411   1_565 S
C104   C107    1.470   .     S
C105   H106    1.072   .     S
C105   O124    1.255   .     D
N108   C111    1.460   .     S
N108   C115    1.463   1_554 S
N108   C119    1.370   .     S
C111   H112    1.103   1_554 S
C111   H113    1.108   .     S
C111   H114    1.106   .     S
H112   C111    1.103   1_556 S
C115   N108    1.463   1_556 S
C115   H116    1.110   .     S
C115   H117    1.109   .     S
C115   H118    1.107   .     S
C119   H120    1.080   .     S
O121   H122    0.995   .     S
O121   H123    0.992   1_554 S
H123   O121    0.992   1_556 S
O124   Ba64    2.689   1_565 S
O124   Ba188   2.702   1_554 S
Ba125  O128    2.878   .     S
Ba125  O129    2.600   .     S
Ba125  O131    2.729   .     S
Ba125  O133    2.709   .     S
Ba125  O147    2.688   .     S
Ba125  C153    3.175   .     S
Ba125  Ba188   4.385   .     S
Ba125  O189    2.634   .     S
Ba125  O192    2.728   .     S
Ba125  C233    3.149   .     S
Ba126  O127    2.780   .     S
Ba126  O134    2.712   .     S
Ba126  O183    2.713   .     S
Ba126  O186    2.689   .     S
Ba126  Ba187   4.385   .     S
Ba126  O190    2.863   .     S
Ba126  O193    2.666   .     S
Ba126  O194    2.709   .     S
O127   C171    1.362   .     S
O127   Ba187   2.634   .     S
O128   C153    1.384   .     S
O128   Ba188   2.863   .     S
O129   C153    1.200   .     D
O130   C171    1.196   .     D
O130   Ba187   2.728   .     S
O131   C166    1.264   .     D
O131   Ba188   2.666   .     S
O132   C166    1.263   .     S
O132   Ba63    2.695   1_556 S
O132   Ba188   2.709   .     S
O133   C167    1.262   .     S
O134   H135    0.990   .     S
O134   H136    0.989   .     S
C137   H138    1.077   .     S
C137   C143    1.391   .     D
C137   C163    1.402   .     S
C139   H140    1.076   .     S
C139   C148    1.383   .     D
C139   C155    1.386   .     S
C141   H142    1.083   .     S
C141   C164    1.400   .     S
C141   C169    1.402   .     D
C143   H144    1.077   .     S
C143   C172    1.399   .     S
C145   H146    1.082   .     S
C145   C157    1.398   .     S
C145   C172    1.405   .     D
O147   C181    1.220   .     D
C148   H149    1.084   .     S
C148   C154    1.403   .     S
C150   C151    1.403   .     S
C150   C159    1.492   .     S
C150   C164    1.411   .     D
C151   H152    1.077   .     S
C151   C160    1.395   .     D
C153   C172    1.474   1_565 S
C154   C162    1.427   .     D
C154   C163    1.486   .     S
C155   H156    1.082   .     S
C155   C159    1.404   .     D
C157   H158    1.080   .     S
C157   C163    1.403   .     D
C159   C162    1.434   .     S
C160   H161    1.081   .     S
C160   C169    1.399   .     S
C162   C171    1.484   .     S
C164   H165    1.083   .     S
C166   C169    1.470   .     S
C167   H168    1.072   .     S
C167   O186    1.255   .     D
N170   C173    1.460   .     S
N170   C177    1.463   .     S
N170   C181    1.370   .     S
C171   Ba187   3.149   .     S
C172   C153    1.474   1_545 S
C173   H174    1.103   .     S
C173   H175    1.108   .     S
C173   H176    1.106   .     S
C177   H178    1.110   .     S
C177   H179    1.109   .     S
C177   H180    1.107   .     S
C181   H182    1.080   .     S
O183   H184    0.995   .     S
O183   H185    0.992   .     S
Ba187  O8      2.695   1_556 S
Ba187  Ba64    4.813   1_556 S
Ba187  O190    2.878   .     S
Ba187  O191    2.600   .     S
Ba187  O193    2.729   .     S
Ba187  O195    2.709   .     S
Ba187  O209    2.688   .     S
Ba187  C215    3.175   .     S
Ba188  O71     2.710   1_556 S
Ba188  O124    2.702   1_556 S
Ba188  Ba63    4.813   1_556 S
Ba188  O189    2.780   .     S
Ba188  O196    2.712   1_556 S
Ba188  O245    2.713   .     S
Ba188  O248    2.689   1_565 S
O189   C233    1.362   .     S
O190   C215    1.384   .     S
O191   C215    1.200   .     D
O192   C233    1.196   .     D
O193   C228    1.264   .     D
O194   C228    1.263   .     S
O195   C229    1.262   .     S
O195   Ba64    2.710   1_556 S
O196   H197    0.990   .     S
O196   H198    0.989   .     S
O196   Ba188   2.712   1_554 S
C199   H200    1.077   .     S
C199   C205    1.391   .     S
C199   C225    1.402   .     D
C201   H202    1.076   .     S
C201   C210    1.383   .     S
C201   C217    1.386   .     D
C203   H204    1.083   .     S
C203   C226    1.400   .     D
C203   C231    1.402   .     S
C205   H206    1.077   .     S
C205   C234    1.399   .     D
C207   H208    1.082   .     S
C207   C219    1.398   .     D
C207   C234    1.405   .     S
O209   C243    1.220   .     D
C210   H211    1.084   .     S
C210   C216    1.403   .     D
C212   C213    1.403   .     D
C212   C221    1.492   .     S
C212   C226    1.411   1_565 S
C213   H214    1.077   .     S
C213   C222    1.395   1_565 S
C215   C234    1.474   .     S
C216   C224    1.427   .     S
C216   C225    1.486   .     S
C217   H218    1.082   .     S
C217   C221    1.404   .     S
C219   H220    1.080   .     S
C219   C225    1.403   .     S
C221   C224    1.434   .     D
C222   C213    1.395   1_545 S
C222   H223    1.081   .     S
C222   C231    1.399   .     D
C224   C233    1.484   .     S
C226   H227    1.083   .     S
C226   C212    1.411   1_545 S
C228   C231    1.470   .     S
C229   H230    1.072   .     S
C229   O248    1.255   .     D
N232   C235    1.460   .     S
N232   C239    1.463   1_556 S
N232   C243    1.370   .     S
C235   H236    1.103   1_556 S
C235   H237    1.108   .     S
C235   H238    1.106   .     S
H236   C235    1.103   1_554 S
C239   N232    1.463   1_554 S
C239   H240    1.110   .     S
C239   H241    1.109   .     S
C239   H242    1.107   .     S
C243   H244    1.080   .     S
O245   H246    0.995   .     S
O245   H247    0.992   1_556 S
H247   O245    0.992   1_554 S
O248   Ba188   2.689   1_545 S
O248   Ba64    2.702   1_556 S
