data_RINNUA_FSR
_audit_creation_date              2024-06-11
_audit_creation_method            'Materials Studio'
_symmetry_space_group_name_H-M    'P1'
_symmetry_Int_Tables_number       1
_symmetry_cell_setting            triclinic
loop_
_symmetry_equiv_pos_as_xyz
  x,y,z
_cell_length_a                    23.8030
_cell_length_b                    9.7214
_cell_length_c                    23.9320
_cell_angle_alpha                 90.0000
_cell_angle_beta                  103.8620
_cell_angle_gamma                 90.0000
loop_
_atom_site_label
_atom_site_type_symbol
_atom_site_fract_x
_atom_site_fract_y
_atom_site_fract_z
_atom_site_U_iso_or_equiv
_atom_site_adp_type
_atom_site_occupancy
Co1    Co    0.07598   0.39842   0.52284   0.00000  Uiso   1.00
O2     O     0.09198   0.69980   0.82182   0.00000  Uiso   1.00
O3     O     0.34912   0.73810   0.97308   0.00000  Uiso   1.00
O4     O     0.35587   0.87220   0.90211   0.00000  Uiso   1.00
C5     C     0.26602   0.76180   0.89529   0.00000  Uiso   1.00
C6     C     0.23610   0.85170   0.85680   0.00000  Uiso   1.00
H7     H     0.25480   0.92820   0.84650   0.00000  Uiso   1.00
C8     C     0.17780   0.83200   0.83220   0.00000  Uiso   1.00
H9     H     0.15690   0.89660   0.80680   0.00000  Uiso   1.00
C10    C     0.15170   0.71820   0.84540   0.00000  Uiso   1.00
C11    C     0.18080   0.62130   0.88260   0.00000  Uiso   1.00
H12    H     0.16240   0.54180   0.89060   0.00000  Uiso   1.00
C13    C     0.23780   0.64470   0.90770   0.00000  Uiso   1.00
H14    H     0.25820   0.58080   0.93380   0.00000  Uiso   1.00
C15    C     0.32772   0.78940   0.92485   0.00000  Uiso   1.00
O16    O     0.04301   0.55930   0.55676   0.00000  Uiso   1.00
O17    O     0.95898   0.65170   0.56047   0.00000  Uiso   1.00
C18    C     0.03179   0.63920   0.64687   0.00000  Uiso   1.00
C19    C     0.99739   0.69600   0.67917   0.00000  Uiso   1.00
H20    H     0.95950   0.72040   0.66160   0.00000  Uiso   1.00
C21    C     0.01850   0.71740   0.73770   0.00000  Uiso   1.00
H22    H     0.99510   0.75630   0.75950   0.00000  Uiso   1.00
C23    C     0.07394   0.68070   0.76260   0.00000  Uiso   1.00
C24    C     0.10897   0.62210   0.73168   0.00000  Uiso   1.00
H25    H     0.14650   0.59600   0.74970   0.00000  Uiso   1.00
C26    C     0.08815   0.60220   0.67381   0.00000  Uiso   1.00
H27    H     0.11190   0.56360   0.65230   0.00000  Uiso   1.00
C28    C     0.00990   0.61390   0.58342   0.00000  Uiso   1.00
O29    O     0.81783   0.84680   0.66162   0.00000  Uiso   1.00
N30    N     0.02184   0.26000   0.55647   0.00000  Uiso   1.00
C31    C     0.98582   0.17210   0.52351   0.00000  Uiso   1.00
H32    H     0.98670   0.16500   0.48500   0.00000  Uiso   1.00
C33    C     0.94759   0.09150   0.54300   0.00000  Uiso   1.00
H34    H     0.92400   0.03040   0.51800   0.00000  Uiso   1.00
C35    C     0.94367   0.10010   0.59987   0.00000  Uiso   1.00
C36    C     0.98040   0.19050   0.63363   0.00000  Uiso   1.00
H37    H     0.98010   0.19980   0.67220   0.00000  Uiso   1.00
C38    C     0.01793   0.26850   0.61107   0.00000  Uiso   1.00
H39    H     0.04190   0.33040   0.63520   0.00000  Uiso   1.00
C40    C     0.90248   0.01690   0.62227   0.00000  Uiso   1.00
H41    H     0.89990   0.03260   0.65990   0.00000  Uiso   1.00
C42    C     0.86938   0.92270   0.59290   0.00000  Uiso   1.00
H43    H     0.87380   0.90480   0.55600   0.00000  Uiso   1.00
C44    C     0.82500   0.84060   0.61280   0.00000  Uiso   1.00
N45    N     0.79472   0.75950   0.57188   0.00000  Uiso   1.00
H46    H     0.80600   0.76020   0.54030   0.00000  Uiso   1.00
N47    N     0.60290   0.40930   0.55460   0.00000  Uiso   1.00
H48    H     0.59640   0.38290   0.58680   0.00000  Uiso   1.00
C49    C     0.74693   0.67190   0.57130   0.00000  Uiso   1.00
C50    C     0.72160   0.61190   0.52100   0.00000  Uiso   1.00
H51    H     0.73620   0.63090   0.48910   0.00000  Uiso   1.00
C52    C     0.67530   0.52420   0.51400   0.00000  Uiso   1.00
H53    H     0.65950   0.48410   0.47850   0.00000  Uiso   1.00
C54    C     0.65310   0.49740   0.55970   0.00000  Uiso   1.00
C55    C     0.67870   0.55510   0.61190   0.00000  Uiso   1.00
H56    H     0.66390   0.53550   0.64370   0.00000  Uiso   1.00
C57    C     0.72610   0.64220   0.61850   0.00000  Uiso   1.00
H58    H     0.74340   0.67950   0.65430   0.00000  Uiso   1.00
O59    O     0.57410   0.40210   0.45030   0.00000  Uiso   1.00
N60    N     0.38231   0.00070   0.50550   0.00000  Uiso   1.00
H61    H     0.38360   0.96000   0.53770   0.00000  Uiso   1.00
C62    C     0.56820   0.36650   0.51120   0.00000  Uiso   1.00
C63    C     0.51920   0.27710   0.50930   0.00000  Uiso   1.00
C64    C     0.47580   0.26840   0.46240   0.00000  Uiso   1.00
H65    H     0.47700   0.32320   0.43080   0.00000  Uiso   1.00
C66    C     0.42880   0.18050   0.45870   0.00000  Uiso   1.00
H67    H     0.39890   0.17740   0.42560   0.00000  Uiso   1.00
C68    C     0.42750   0.09790   0.50550   0.00000  Uiso   1.00
C69    C     0.47140   0.10200   0.55560   0.00000  Uiso   1.00
H70    H     0.47100   0.04600   0.58700   0.00000  Uiso   1.00
C71    C     0.51720   0.19810   0.55590   0.00000  Uiso   1.00
H72    H     0.54670   0.20680   0.58920   0.00000  Uiso   1.00
O73    O     0.33210   0.00660   0.41400   0.00000  Uiso   1.00
N74    N     0.13033   0.54620   0.49163   0.00000  Uiso   1.00
C75    C     0.16426   0.62910   0.53017   0.00000  Uiso   1.00
H76    H     0.16130   0.62430   0.56820   0.00000  Uiso   1.00
C77    C     0.20318   0.72090   0.51720   0.00000  Uiso   1.00
H78    H     0.22560   0.77610   0.54570   0.00000  Uiso   1.00
C79    C     0.20850   0.73000   0.46080   0.00000  Uiso   1.00
C80    C     0.17272   0.64810   0.42070   0.00000  Uiso   1.00
H81    H     0.17400   0.65290   0.38220   0.00000  Uiso   1.00
C82    C     0.13454   0.55790   0.43795   0.00000  Uiso   1.00
H83    H     0.11080   0.50310   0.41010   0.00000  Uiso   1.00
C84    C     0.25060   0.82380   0.44460   0.00000  Uiso   1.00
H85    H     0.24330   0.85300   0.40660   0.00000  Uiso   1.00
C86    C     0.29740   0.86840   0.48010   0.00000  Uiso   1.00
H87    H     0.30560   0.83880   0.51810   0.00000  Uiso   1.00
C88    C     0.33870   0.96600   0.46190   0.00000  Uiso   1.00
Co89   Co    0.42402   0.89842   0.97716   0.00000  Uiso   1.00
O90    O     0.40802   0.19980   0.67818   0.00000  Uiso   1.00
O91    O     0.15088   0.23810   0.52692   0.00000  Uiso   1.00
O92    O     0.14413   0.37220   0.59789   0.00000  Uiso   1.00
C93    C     0.23398   0.26180   0.60471   0.00000  Uiso   1.00
C94    C     0.26390   0.35170   0.64320   0.00000  Uiso   1.00
H95    H     0.24520   0.42820   0.65350   0.00000  Uiso   1.00
C96    C     0.32220   0.33200   0.66780   0.00000  Uiso   1.00
H97    H     0.34310   0.39660   0.69320   0.00000  Uiso   1.00
C98    C     0.34830   0.21820   0.65460   0.00000  Uiso   1.00
C99    C     0.31920   0.12130   0.61740   0.00000  Uiso   1.00
H100   H     0.33760   0.04180   0.60940   0.00000  Uiso   1.00
C101   C     0.26220   0.14470   0.59230   0.00000  Uiso   1.00
H102   H     0.24180   0.08080   0.56620   0.00000  Uiso   1.00
C103   C     0.17228   0.28940   0.57515   0.00000  Uiso   1.00
O104   O     0.45699   0.05930   0.94324   0.00000  Uiso   1.00
O105   O     0.54102   0.15170   0.93953   0.00000  Uiso   1.00
C106   C     0.46821   0.13920   0.85313   0.00000  Uiso   1.00
C107   C     0.50261   0.19600   0.82083   0.00000  Uiso   1.00
H108   H     0.54050   0.22040   0.83840   0.00000  Uiso   1.00
C109   C     0.48150   0.21740   0.76230   0.00000  Uiso   1.00
H110   H     0.50490   0.25630   0.74050   0.00000  Uiso   1.00
C111   C     0.42606   0.18070   0.73740   0.00000  Uiso   1.00
C112   C     0.39103   0.12210   0.76832   0.00000  Uiso   1.00
H113   H     0.35350   0.09600   0.75030   0.00000  Uiso   1.00
C114   C     0.41185   0.10220   0.82619   0.00000  Uiso   1.00
H115   H     0.38810   0.06360   0.84770   0.00000  Uiso   1.00
C116   C     0.49010   0.11390   0.91658   0.00000  Uiso   1.00
O117   O     0.68217   0.34680   0.83838   0.00000  Uiso   1.00
N118   N     0.47816   0.76000   0.94353   0.00000  Uiso   1.00
C119   C     0.51418   0.67210   0.97649   0.00000  Uiso   1.00
H120   H     0.51330   0.66500   0.01500   0.00000  Uiso   1.00
C121   C     0.55241   0.59150   0.95700   0.00000  Uiso   1.00
H122   H     0.57600   0.53040   0.98200   0.00000  Uiso   1.00
C123   C     0.55633   0.60010   0.90013   0.00000  Uiso   1.00
C124   C     0.51960   0.69050   0.86637   0.00000  Uiso   1.00
H125   H     0.51990   0.69980   0.82780   0.00000  Uiso   1.00
C126   C     0.48207   0.76850   0.88893   0.00000  Uiso   1.00
H127   H     0.45810   0.83040   0.86480   0.00000  Uiso   1.00
C128   C     0.59752   0.51690   0.87773   0.00000  Uiso   1.00
H129   H     0.60010   0.53260   0.84010   0.00000  Uiso   1.00
C130   C     0.63062   0.42270   0.90710   0.00000  Uiso   1.00
H131   H     0.62620   0.40480   0.94400   0.00000  Uiso   1.00
C132   C     0.67500   0.34060   0.88720   0.00000  Uiso   1.00
N133   N     0.70528   0.25950   0.92812   0.00000  Uiso   1.00
H134   H     0.69400   0.26020   0.95970   0.00000  Uiso   1.00
N135   N     0.89710   0.90930   0.94540   0.00000  Uiso   1.00
H136   H     0.90360   0.88290   0.91320   0.00000  Uiso   1.00
C137   C     0.75307   0.17190   0.92870   0.00000  Uiso   1.00
C138   C     0.77840   0.11190   0.97900   0.00000  Uiso   1.00
H139   H     0.76380   0.13090   0.01090   0.00000  Uiso   1.00
C140   C     0.82470   0.02420   0.98600   0.00000  Uiso   1.00
H141   H     0.84050   0.98410   0.02150   0.00000  Uiso   1.00
C142   C     0.84690   0.99740   0.94030   0.00000  Uiso   1.00
C143   C     0.82130   0.05510   0.88810   0.00000  Uiso   1.00
H144   H     0.83610   0.03550   0.85630   0.00000  Uiso   1.00
C145   C     0.77390   0.14220   0.88150   0.00000  Uiso   1.00
H146   H     0.75660   0.17950   0.84570   0.00000  Uiso   1.00
O147   O     0.92590   0.90210   0.04970   0.00000  Uiso   1.00
N148   N     0.11769   0.50070   0.99450   0.00000  Uiso   1.00
H149   H     0.11640   0.46000   0.96230   0.00000  Uiso   1.00
C150   C     0.93180   0.86650   0.98880   0.00000  Uiso   1.00
C151   C     0.98080   0.77710   0.99070   0.00000  Uiso   1.00
C152   C     0.02420   0.76840   0.03760   0.00000  Uiso   1.00
H153   H     0.02300   0.82320   0.06920   0.00000  Uiso   1.00
C154   C     0.07120   0.68050   0.04130   0.00000  Uiso   1.00
H155   H     0.10110   0.67740   0.07440   0.00000  Uiso   1.00
C156   C     0.07250   0.59790   0.99450   0.00000  Uiso   1.00
C157   C     0.02860   0.60200   0.94440   0.00000  Uiso   1.00
H158   H     0.02900   0.54600   0.91300   0.00000  Uiso   1.00
C159   C     0.98280   0.69810   0.94410   0.00000  Uiso   1.00
H160   H     0.95330   0.70680   0.91080   0.00000  Uiso   1.00
O161   O     0.16790   0.50660   0.08600   0.00000  Uiso   1.00
N162   N     0.36967   0.04620   0.00837   0.00000  Uiso   1.00
C163   C     0.33574   0.12910   0.96983   0.00000  Uiso   1.00
H164   H     0.33870   0.12430   0.93180   0.00000  Uiso   1.00
C165   C     0.29682   0.22090   0.98280   0.00000  Uiso   1.00
H166   H     0.27440   0.27610   0.95430   0.00000  Uiso   1.00
C167   C     0.29150   0.23000   0.03920   0.00000  Uiso   1.00
C168   C     0.32728   0.14810   0.07930   0.00000  Uiso   1.00
H169   H     0.32600   0.15290   0.11780   0.00000  Uiso   1.00
C170   C     0.36546   0.05790   0.06205   0.00000  Uiso   1.00
H171   H     0.38920   0.00310   0.08990   0.00000  Uiso   1.00
C172   C     0.24940   0.32380   0.05540   0.00000  Uiso   1.00
H173   H     0.25670   0.35300   0.09340   0.00000  Uiso   1.00
C174   C     0.20260   0.36840   0.01990   0.00000  Uiso   1.00
H175   H     0.19440   0.33880   0.98190   0.00000  Uiso   1.00
C176   C     0.16130   0.46600   0.03810   0.00000  Uiso   1.00
Co177  Co    0.92402   0.60158   0.47716   0.00000  Uiso   1.00
O178   O     0.90802   0.30020   0.17818   0.00000  Uiso   1.00
O179   O     0.65088   0.26190   0.02692   0.00000  Uiso   1.00
O180   O     0.64413   0.12780   0.09789   0.00000  Uiso   1.00
C181   C     0.73398   0.23820   0.10471   0.00000  Uiso   1.00
C182   C     0.76390   0.14830   0.14320   0.00000  Uiso   1.00
H183   H     0.74520   0.07180   0.15350   0.00000  Uiso   1.00
C184   C     0.82220   0.16800   0.16780   0.00000  Uiso   1.00
H185   H     0.84310   0.10340   0.19320   0.00000  Uiso   1.00
C186   C     0.84830   0.28180   0.15460   0.00000  Uiso   1.00
C187   C     0.81920   0.37870   0.11740   0.00000  Uiso   1.00
H188   H     0.83760   0.45820   0.10940   0.00000  Uiso   1.00
C189   C     0.76220   0.35530   0.09230   0.00000  Uiso   1.00
H190   H     0.74180   0.41920   0.06620   0.00000  Uiso   1.00
C191   C     0.67228   0.21060   0.07515   0.00000  Uiso   1.00
O192   O     0.95699   0.44070   0.44324   0.00000  Uiso   1.00
O193   O     0.04102   0.34830   0.43953   0.00000  Uiso   1.00
C194   C     0.96821   0.36080   0.35313   0.00000  Uiso   1.00
C195   C     0.00261   0.30400   0.32083   0.00000  Uiso   1.00
H196   H     0.04050   0.27960   0.33840   0.00000  Uiso   1.00
C197   C     0.98150   0.28260   0.26230   0.00000  Uiso   1.00
H198   H     0.00490   0.24370   0.24050   0.00000  Uiso   1.00
C199   C     0.92606   0.31930   0.23740   0.00000  Uiso   1.00
C200   C     0.89103   0.37790   0.26832   0.00000  Uiso   1.00
H201   H     0.85350   0.40400   0.25030   0.00000  Uiso   1.00
C202   C     0.91185   0.39780   0.32619   0.00000  Uiso   1.00
H203   H     0.88810   0.43640   0.34770   0.00000  Uiso   1.00
C204   C     0.99010   0.38610   0.41658   0.00000  Uiso   1.00
O205   O     0.18217   0.15320   0.33838   0.00000  Uiso   1.00
N206   N     0.97816   0.74000   0.44353   0.00000  Uiso   1.00
C207   C     0.01418   0.82790   0.47649   0.00000  Uiso   1.00
H208   H     0.01330   0.83500   0.51500   0.00000  Uiso   1.00
C209   C     0.05241   0.90850   0.45700   0.00000  Uiso   1.00
H210   H     0.07600   0.96960   0.48200   0.00000  Uiso   1.00
C211   C     0.05633   0.89990   0.40013   0.00000  Uiso   1.00
C212   C     0.01960   0.80950   0.36637   0.00000  Uiso   1.00
H213   H     0.01990   0.80020   0.32780   0.00000  Uiso   1.00
C214   C     0.98207   0.73150   0.38893   0.00000  Uiso   1.00
H215   H     0.95810   0.66960   0.36480   0.00000  Uiso   1.00
C216   C     0.09752   0.98310   0.37773   0.00000  Uiso   1.00
H217   H     0.10010   0.96740   0.34010   0.00000  Uiso   1.00
C218   C     0.13062   0.07730   0.40710   0.00000  Uiso   1.00
H219   H     0.12620   0.09520   0.44400   0.00000  Uiso   1.00
C220   C     0.17500   0.15940   0.38720   0.00000  Uiso   1.00
N221   N     0.20528   0.24050   0.42812   0.00000  Uiso   1.00
H222   H     0.19400   0.23980   0.45970   0.00000  Uiso   1.00
N223   N     0.39710   0.59070   0.44540   0.00000  Uiso   1.00
H224   H     0.40360   0.61710   0.41320   0.00000  Uiso   1.00
C225   C     0.25307   0.32810   0.42870   0.00000  Uiso   1.00
C226   C     0.27840   0.38810   0.47900   0.00000  Uiso   1.00
H227   H     0.26380   0.36910   0.51090   0.00000  Uiso   1.00
C228   C     0.32470   0.47580   0.48600   0.00000  Uiso   1.00
H229   H     0.34050   0.51590   0.52150   0.00000  Uiso   1.00
C230   C     0.34690   0.50260   0.44030   0.00000  Uiso   1.00
C231   C     0.32130   0.44490   0.38810   0.00000  Uiso   1.00
H232   H     0.33610   0.46450   0.35630   0.00000  Uiso   1.00
C233   C     0.27390   0.35780   0.38150   0.00000  Uiso   1.00
H234   H     0.25660   0.32050   0.34570   0.00000  Uiso   1.00
O235   O     0.42590   0.59790   0.54970   0.00000  Uiso   1.00
N236   N     0.61769   0.99930   0.49450   0.00000  Uiso   1.00
H237   H     0.61640   0.04000   0.46230   0.00000  Uiso   1.00
C238   C     0.43180   0.63350   0.48880   0.00000  Uiso   1.00
C239   C     0.48080   0.72290   0.49070   0.00000  Uiso   1.00
C240   C     0.52420   0.73160   0.53760   0.00000  Uiso   1.00
H241   H     0.52300   0.67680   0.56920   0.00000  Uiso   1.00
C242   C     0.57120   0.81950   0.54130   0.00000  Uiso   1.00
H243   H     0.60110   0.82260   0.57440   0.00000  Uiso   1.00
C244   C     0.57250   0.90210   0.49450   0.00000  Uiso   1.00
C245   C     0.52860   0.89800   0.44440   0.00000  Uiso   1.00
H246   H     0.52900   0.95400   0.41300   0.00000  Uiso   1.00
C247   C     0.48280   0.80190   0.44410   0.00000  Uiso   1.00
H248   H     0.45330   0.79320   0.41080   0.00000  Uiso   1.00
O249   O     0.66790   0.99340   0.58600   0.00000  Uiso   1.00
N250   N     0.86967   0.45380   0.50837   0.00000  Uiso   1.00
C251   C     0.83574   0.37090   0.46983   0.00000  Uiso   1.00
H252   H     0.83870   0.37570   0.43180   0.00000  Uiso   1.00
C253   C     0.79682   0.27910   0.48280   0.00000  Uiso   1.00
H254   H     0.77440   0.22390   0.45430   0.00000  Uiso   1.00
C255   C     0.79150   0.27000   0.53920   0.00000  Uiso   1.00
C256   C     0.82728   0.35190   0.57930   0.00000  Uiso   1.00
H257   H     0.82600   0.34710   0.61780   0.00000  Uiso   1.00
C258   C     0.86546   0.44210   0.56205   0.00000  Uiso   1.00
H259   H     0.88920   0.49690   0.58990   0.00000  Uiso   1.00
C260   C     0.74940   0.17620   0.55540   0.00000  Uiso   1.00
H261   H     0.75670   0.14700   0.59340   0.00000  Uiso   1.00
C262   C     0.70260   0.13160   0.51990   0.00000  Uiso   1.00
H263   H     0.69440   0.16120   0.48190   0.00000  Uiso   1.00
C264   C     0.66130   0.03400   0.53810   0.00000  Uiso   1.00
Co265  Co    0.57598   0.10158   0.02284   0.00000  Uiso   1.00
O266   O     0.59198   0.80020   0.32182   0.00000  Uiso   1.00
O267   O     0.84912   0.76190   0.47308   0.00000  Uiso   1.00
O268   O     0.85587   0.62780   0.40211   0.00000  Uiso   1.00
C269   C     0.76602   0.73820   0.39529   0.00000  Uiso   1.00
C270   C     0.73610   0.64830   0.35680   0.00000  Uiso   1.00
H271   H     0.75480   0.57180   0.34650   0.00000  Uiso   1.00
C272   C     0.67780   0.66800   0.33220   0.00000  Uiso   1.00
H273   H     0.65690   0.60340   0.30680   0.00000  Uiso   1.00
C274   C     0.65170   0.78180   0.34540   0.00000  Uiso   1.00
C275   C     0.68080   0.87870   0.38260   0.00000  Uiso   1.00
H276   H     0.66240   0.95820   0.39060   0.00000  Uiso   1.00
C277   C     0.73780   0.85530   0.40770   0.00000  Uiso   1.00
H278   H     0.75820   0.91920   0.43380   0.00000  Uiso   1.00
C279   C     0.82772   0.71060   0.42485   0.00000  Uiso   1.00
O280   O     0.54301   0.94070   0.05676   0.00000  Uiso   1.00
O281   O     0.45898   0.84830   0.06047   0.00000  Uiso   1.00
C282   C     0.53179   0.86080   0.14687   0.00000  Uiso   1.00
C283   C     0.49739   0.80400   0.17917   0.00000  Uiso   1.00
H284   H     0.45950   0.77960   0.16160   0.00000  Uiso   1.00
C285   C     0.51850   0.78260   0.23770   0.00000  Uiso   1.00
H286   H     0.49510   0.74370   0.25950   0.00000  Uiso   1.00
C287   C     0.57394   0.81930   0.26260   0.00000  Uiso   1.00
C288   C     0.60897   0.87790   0.23168   0.00000  Uiso   1.00
H289   H     0.64650   0.90400   0.24970   0.00000  Uiso   1.00
C290   C     0.58815   0.89780   0.17381   0.00000  Uiso   1.00
H291   H     0.61190   0.93640   0.15230   0.00000  Uiso   1.00
C292   C     0.50990   0.88610   0.08342   0.00000  Uiso   1.00
O293   O     0.31783   0.65320   0.16162   0.00000  Uiso   1.00
N294   N     0.52184   0.24000   0.05647   0.00000  Uiso   1.00
C295   C     0.48582   0.32790   0.02351   0.00000  Uiso   1.00
H296   H     0.48670   0.33500   0.98500   0.00000  Uiso   1.00
C297   C     0.44759   0.40850   0.04300   0.00000  Uiso   1.00
H298   H     0.42400   0.46960   0.01800   0.00000  Uiso   1.00
C299   C     0.44367   0.39990   0.09987   0.00000  Uiso   1.00
C300   C     0.48040   0.30950   0.13363   0.00000  Uiso   1.00
H301   H     0.48010   0.30020   0.17220   0.00000  Uiso   1.00
C302   C     0.51793   0.23150   0.11107   0.00000  Uiso   1.00
H303   H     0.54190   0.16960   0.13520   0.00000  Uiso   1.00
C304   C     0.40248   0.48310   0.12227   0.00000  Uiso   1.00
H305   H     0.39990   0.46740   0.15990   0.00000  Uiso   1.00
C306   C     0.36938   0.57730   0.09290   0.00000  Uiso   1.00
H307   H     0.37380   0.59520   0.05600   0.00000  Uiso   1.00
C308   C     0.32500   0.65940   0.11280   0.00000  Uiso   1.00
N309   N     0.29472   0.74050   0.07188   0.00000  Uiso   1.00
H310   H     0.30600   0.73980   0.04030   0.00000  Uiso   1.00
N311   N     0.10290   0.09070   0.05460   0.00000  Uiso   1.00
H312   H     0.09640   0.11710   0.08680   0.00000  Uiso   1.00
C313   C     0.24693   0.82810   0.07130   0.00000  Uiso   1.00
C314   C     0.22160   0.88810   0.02100   0.00000  Uiso   1.00
H315   H     0.23620   0.86910   0.98910   0.00000  Uiso   1.00
C316   C     0.17530   0.97580   0.01400   0.00000  Uiso   1.00
H317   H     0.15950   0.01590   0.97850   0.00000  Uiso   1.00
C318   C     0.15310   0.00260   0.05970   0.00000  Uiso   1.00
C319   C     0.17870   0.94490   0.11190   0.00000  Uiso   1.00
H320   H     0.16390   0.96450   0.14370   0.00000  Uiso   1.00
C321   C     0.22610   0.85780   0.11850   0.00000  Uiso   1.00
H322   H     0.24340   0.82050   0.15430   0.00000  Uiso   1.00
O323   O     0.07410   0.09790   0.95030   0.00000  Uiso   1.00
N324   N     0.88231   0.49930   0.00550   0.00000  Uiso   1.00
H325   H     0.88360   0.54000   0.03770   0.00000  Uiso   1.00
C326   C     0.06820   0.13350   0.01120   0.00000  Uiso   1.00
C327   C     0.01920   0.22290   0.00930   0.00000  Uiso   1.00
C328   C     0.97580   0.23160   0.96240   0.00000  Uiso   1.00
H329   H     0.97700   0.17680   0.93080   0.00000  Uiso   1.00
C330   C     0.92880   0.31950   0.95870   0.00000  Uiso   1.00
H331   H     0.89890   0.32260   0.92560   0.00000  Uiso   1.00
C332   C     0.92750   0.40210   0.00550   0.00000  Uiso   1.00
C333   C     0.97140   0.39800   0.05560   0.00000  Uiso   1.00
H334   H     0.97100   0.45400   0.08700   0.00000  Uiso   1.00
C335   C     0.01720   0.30190   0.05590   0.00000  Uiso   1.00
H336   H     0.04670   0.29320   0.08920   0.00000  Uiso   1.00
O337   O     0.83210   0.49340   0.91400   0.00000  Uiso   1.00
N338   N     0.63033   0.95380   0.99163   0.00000  Uiso   1.00
C339   C     0.66426   0.87090   0.03017   0.00000  Uiso   1.00
H340   H     0.66130   0.87570   0.06820   0.00000  Uiso   1.00
C341   C     0.70318   0.77910   0.01720   0.00000  Uiso   1.00
H342   H     0.72560   0.72390   0.04570   0.00000  Uiso   1.00
C343   C     0.70850   0.77000   0.96080   0.00000  Uiso   1.00
C344   C     0.67272   0.85190   0.92070   0.00000  Uiso   1.00
H345   H     0.67400   0.84710   0.88220   0.00000  Uiso   1.00
C346   C     0.63454   0.94210   0.93795   0.00000  Uiso   1.00
H347   H     0.61080   0.99690   0.91010   0.00000  Uiso   1.00
C348   C     0.75060   0.67620   0.94460   0.00000  Uiso   1.00
H349   H     0.74330   0.64700   0.90660   0.00000  Uiso   1.00
C350   C     0.79740   0.63160   0.98010   0.00000  Uiso   1.00
H351   H     0.80560   0.66120   0.01810   0.00000  Uiso   1.00
C352   C     0.83870   0.53400   0.96190   0.00000  Uiso   1.00
loop_
_geom_bond_atom_site_label_1
_geom_bond_atom_site_label_2
_geom_bond_distance
_geom_bond_site_symmetry_2
_ccdc_geom_bond_type
Co1    O16     2.007   .     S
Co1    N30     2.149   .     S
Co1    O91     2.352   .     S
Co1    O92     2.128   .     S
Co1    O193    2.027   .     S
Co1    N74     2.181   .     S
O2     C10     1.410   .     S
O2     C23     1.391   .     S
O3     C15     1.248   .     S
O3     Co89    2.352   .     S
O4     C15     1.252   .     S
O4     Co89    2.128   .     S
C5     C6      1.344   .     S
C5     C13     1.390   .     S
C5     C15     1.494   .     S
C6     H7      0.930   .     S
C6     C8      1.385   .     S
C8     H9      0.931   .     S
C8     C10     1.343   .     S
C10    C11     1.365   .     S
C11    H12     0.931   .     S
C11    C13     1.365   .     S
C13    H14     0.931   .     S
O16    C28     1.245   .     S
O17    C28     1.260   1_655 S
O17    Co177   2.027   .     S
C18    C19     1.370   1_455 S
C18    C26     1.389   .     S
C18    C28     1.503   .     S
C19    C18     1.370   1_655 S
C19    H20     0.930   .     S
C19    C21     1.386   1_655 S
C21    C19     1.386   1_455 S
C21    H22     0.930   1_455 S
C21    C23     1.359   .     S
H22    C21     0.930   1_655 S
C23    C24     1.365   .     S
C24    H25     0.929   .     S
C24    C26     1.368   .     S
C26    H27     0.930   .     S
C28    O17     1.260   1_455 S
O29    C44     1.222   .     S
N30    C31     1.328   1_455 S
N30    C38     1.335   .     S
C31    N30     1.328   1_655 S
C31    H32     0.929   .     S
C31    C33     1.365   .     S
C33    H34     0.930   .     S
C33    C35     1.389   .     S
C35    C36     1.361   .     S
C35    C40     1.468   .     S
C36    H37     0.929   .     S
C36    C38     1.377   1_655 S
C38    H39     0.929   .     S
C38    C36     1.377   1_455 S
C40    H41     0.930   .     S
C40    C42     1.299   1_545 S
C42    C40     1.299   1_565 S
C42    H43     0.930   .     S
C42    C44     1.490   .     S
C44    N45     1.327   .     S
N45    H46     0.861   .     S
N45    C49     1.418   .     S
N47    H48     0.861   .     S
N47    C54     1.451   .     S
N47    C62     1.234   .     S
C49    C50     1.344   .     S
C49    C57     1.369   .     S
C50    H51     0.930   .     S
C50    C52     1.372   .     S
C52    H53     0.928   .     S
C52    C54     1.349   .     S
C54    C55     1.372   .     S
C55    H56     0.932   .     S
C55    C57     1.389   .     S
C57    H58     0.931   .     S
O59    C62     1.537   .     S
N60    H61     0.860   1_545 S
N60    C68     1.432   .     S
N60    C88     1.327   1_545 S
H61    N60     0.860   1_565 S
C62    C63     1.446   .     S
C63    C64     1.334   .     S
C63    C71     1.364   .     S
C64    H65     0.931   .     S
C64    C66     1.394   .     S
C66    H67     0.930   .     S
C66    C68     1.384   .     S
C68    C69     1.390   .     S
C69    H70     0.930   .     S
C69    C71     1.434   .     S
C71    H72     0.931   .     S
O73    C88     1.187   1_545 S
N74    C75     1.340   .     S
N74    C82     1.317   .     S
C75    H76     0.931   .     S
C75    C77     1.374   .     S
C77    H78     0.929   .     S
C77    C79     1.388   .     S
C79    C80     1.374   .     S
C79    C84     1.474   .     S
C80    H81     0.930   .     S
C80    C82     1.395   .     S
C82    H83     0.931   .     S
C84    H85     0.928   .     S
C84    C86     1.303   .     S
C86    H87     0.929   .     S
C86    C88     1.504   .     S
C88    O73     1.187   1_565 S
C88    N60     1.327   1_565 S
Co89   O104    2.007   1_565 S
Co89   N118    2.149   .     S
Co89   O281    2.027   1_556 S
Co89   N162    2.181   1_566 S
O90    C98     1.410   .     S
O90    C111    1.391   .     S
O91    C103    1.248   .     S
O92    C103    1.252   .     S
C93    C94     1.344   .     S
C93    C101    1.390   .     S
C93    C103    1.494   .     S
C94    H95     0.930   .     S
C94    C96     1.385   .     S
C96    H97     0.931   .     S
C96    C98     1.343   .     S
C98    C99     1.365   .     S
C99    H100    0.931   .     S
C99    C101    1.365   .     S
C101   H102    0.931   .     S
O104   Co89    2.007   1_545 S
O104   C116    1.245   .     S
O105   C116    1.260   .     S
O105   Co265   2.027   1_556 S
C106   C107    1.370   .     S
C106   C114    1.389   .     S
C106   C116    1.503   .     S
C107   H108    0.930   .     S
C107   C109    1.386   .     S
C109   H110    0.930   .     S
C109   C111    1.359   .     S
C111   C112    1.365   .     S
C112   H113    0.929   .     S
C112   C114    1.368   .     S
C114   H115    0.930   .     S
O117   C132    1.222   .     S
N118   C119    1.328   .     S
N118   C126    1.335   .     S
C119   H120    0.929   1_556 S
C119   C121    1.365   .     S
H120   C119    0.929   1_554 S
C121   H122    0.930   .     S
C121   C123    1.389   .     S
C123   C124    1.361   .     S
C123   C128    1.468   .     S
C124   H125    0.929   .     S
C124   C126    1.377   .     S
C126   H127    0.929   .     S
C128   H129    0.930   .     S
C128   C130    1.299   .     S
C130   H131    0.930   .     S
C130   C132    1.490   .     S
C132   N133    1.327   .     S
N133   H134    0.861   .     S
N133   C137    1.418   .     S
N135   H136    0.861   .     S
N135   C142    1.451   .     S
N135   C150    1.234   .     S
C137   C138    1.344   .     S
C137   C145    1.369   .     S
C138   H139    0.930   1_556 S
C138   C140    1.372   .     S
H139   C138    0.930   1_554 S
C140   H141    0.928   1_546 S
C140   C142    1.349   1_545 S
H141   C140    0.928   1_564 S
C142   C143    1.372   1_565 S
C142   C140    1.349   1_565 S
C143   C142    1.372   1_545 S
C143   H144    0.932   .     S
C143   C145    1.389   .     S
C145   H146    0.931   .     S
O147   C150    1.537   1_554 S
N148   H149    0.860   .     S
N148   C156    1.432   .     S
N148   C176    1.327   1_556 S
C150   O147    1.537   1_556 S
C150   C151    1.446   .     S
C151   C152    1.334   1_656 S
C151   C159    1.364   .     S
C152   C151    1.334   1_454 S
C152   H153    0.931   .     S
C152   C154    1.394   .     S
C154   H155    0.930   .     S
C154   C156    1.384   1_554 S
C156   C157    1.390   .     S
C156   C154    1.384   1_556 S
C157   H158    0.930   .     S
C157   C159    1.434   1_455 S
C159   H160    0.931   .     S
C159   C157    1.434   1_655 S
O161   C176    1.187   .     S
N162   C163    1.340   1_554 S
N162   C170    1.317   .     S
N162   Co89    2.181   1_544 S
C163   N162    1.340   1_556 S
C163   H164    0.931   .     S
C163   C165    1.374   .     S
C165   H166    0.929   .     S
C165   C167    1.388   1_556 S
C167   C165    1.388   1_554 S
C167   C168    1.374   .     S
C167   C172    1.474   .     S
C168   H169    0.930   .     S
C168   C170    1.395   .     S
C170   H171    0.931   .     S
C172   H173    0.928   .     S
C172   C174    1.303   .     S
C174   H175    0.929   1_554 S
C174   C176    1.504   .     S
H175   C174    0.929   1_556 S
C176   N148    1.327   1_554 S
Co177  O192    2.007   .     S
Co177  N206    2.149   .     S
Co177  O267    2.352   .     S
Co177  O268    2.128   .     S
Co177  N250    2.181   .     S
O178   C186    1.410   .     S
O178   C199    1.391   .     S
O179   C191    1.248   .     S
O179   Co265   2.352   .     S
O180   C191    1.252   .     S
O180   Co265   2.128   .     S
C181   C182    1.344   .     S
C181   C189    1.390   .     S
C181   C191    1.494   .     S
C182   H183    0.930   .     S
C182   C184    1.385   .     S
C184   H185    0.931   .     S
C184   C186    1.343   .     S
C186   C187    1.365   .     S
C187   H188    0.931   .     S
C187   C189    1.365   .     S
C189   H190    0.931   .     S
O192   C204    1.245   .     S
O193   C204    1.260   1_455 S
C194   C195    1.370   1_655 S
C194   C202    1.389   .     S
C194   C204    1.503   .     S
C195   C194    1.370   1_455 S
C195   H196    0.930   .     S
C195   C197    1.386   1_455 S
C197   C195    1.386   1_655 S
C197   H198    0.930   1_655 S
C197   C199    1.359   .     S
H198   C197    0.930   1_455 S
C199   C200    1.365   .     S
C200   H201    0.929   .     S
C200   C202    1.368   .     S
C202   H203    0.930   .     S
C204   O193    1.260   1_655 S
O205   C220    1.222   .     S
N206   C207    1.328   1_655 S
N206   C214    1.335   .     S
C207   N206    1.328   1_455 S
C207   H208    0.929   .     S
C207   C209    1.365   .     S
C209   H210    0.930   .     S
C209   C211    1.389   .     S
C211   C212    1.361   .     S
C211   C216    1.468   .     S
C212   H213    0.929   .     S
C212   C214    1.377   1_455 S
C214   H215    0.929   .     S
C214   C212    1.377   1_655 S
C216   H217    0.930   .     S
C216   C218    1.299   1_565 S
C218   C216    1.299   1_545 S
C218   H219    0.930   .     S
C218   C220    1.490   .     S
C220   N221    1.327   .     S
N221   H222    0.861   .     S
N221   C225    1.418   .     S
N223   H224    0.861   .     S
N223   C230    1.451   .     S
N223   C238    1.234   .     S
C225   C226    1.344   .     S
C225   C233    1.369   .     S
C226   H227    0.930   .     S
C226   C228    1.372   .     S
C228   H229    0.928   .     S
C228   C230    1.349   .     S
C230   C231    1.372   .     S
C231   H232    0.932   .     S
C231   C233    1.389   .     S
C233   H234    0.931   .     S
O235   C238    1.537   .     S
N236   H237    0.860   1_565 S
N236   C244    1.432   .     S
N236   C264    1.327   1_565 S
H237   N236    0.860   1_545 S
C238   C239    1.446   .     S
C239   C240    1.334   .     S
C239   C247    1.364   .     S
C240   H241    0.931   .     S
C240   C242    1.394   .     S
C242   H243    0.930   .     S
C242   C244    1.384   .     S
C244   C245    1.390   .     S
C245   H246    0.930   .     S
C245   C247    1.434   .     S
C247   H248    0.931   .     S
O249   C264    1.187   1_565 S
N250   C251    1.340   .     S
N250   C258    1.317   .     S
C251   H252    0.931   .     S
C251   C253    1.374   .     S
C253   H254    0.929   .     S
C253   C255    1.388   .     S
C255   C256    1.374   .     S
C255   C260    1.474   .     S
C256   H257    0.930   .     S
C256   C258    1.395   .     S
C258   H259    0.931   .     S
C260   H261    0.928   .     S
C260   C262    1.303   .     S
C262   H263    0.929   .     S
C262   C264    1.504   .     S
C264   O249    1.187   1_545 S
C264   N236    1.327   1_545 S
Co265  O280    2.007   1_545 S
Co265  N294    2.149   .     S
Co265  O105    2.027   1_554 S
Co265  N338    2.181   1_544 S
O266   C274    1.410   .     S
O266   C287    1.391   .     S
O267   C279    1.248   .     S
O268   C279    1.252   .     S
C269   C270    1.344   .     S
C269   C277    1.390   .     S
C269   C279    1.494   .     S
C270   H271    0.930   .     S
C270   C272    1.385   .     S
C272   H273    0.931   .     S
C272   C274    1.343   .     S
C274   C275    1.365   .     S
C275   H276    0.931   .     S
C275   C277    1.365   .     S
C277   H278    0.931   .     S
O280   Co265   2.007   1_565 S
O280   C292    1.245   .     S
O281   C292    1.260   .     S
O281   Co89    2.027   1_554 S
C282   C283    1.370   .     S
C282   C290    1.389   .     S
C282   C292    1.503   .     S
C283   H284    0.930   .     S
C283   C285    1.386   .     S
C285   H286    0.930   .     S
C285   C287    1.359   .     S
C287   C288    1.365   .     S
C288   H289    0.929   .     S
C288   C290    1.368   .     S
C290   H291    0.930   .     S
O293   C308    1.222   .     S
N294   C295    1.328   .     S
N294   C302    1.335   .     S
C295   H296    0.929   1_554 S
C295   C297    1.365   .     S
H296   C295    0.929   1_556 S
C297   H298    0.930   .     S
C297   C299    1.389   .     S
C299   C300    1.361   .     S
C299   C304    1.468   .     S
C300   H301    0.929   .     S
C300   C302    1.377   .     S
C302   H303    0.929   .     S
C304   H305    0.930   .     S
C304   C306    1.299   .     S
C306   H307    0.930   .     S
C306   C308    1.490   .     S
C308   N309    1.327   .     S
N309   H310    0.861   .     S
N309   C313    1.418   .     S
N311   H312    0.861   .     S
N311   C318    1.451   .     S
N311   C326    1.234   .     S
C313   C314    1.344   .     S
C313   C321    1.369   .     S
C314   H315    0.930   1_554 S
C314   C316    1.372   .     S
H315   C314    0.930   1_556 S
C316   H317    0.928   1_564 S
C316   C318    1.349   1_565 S
H317   C316    0.928   1_546 S
C318   C319    1.372   1_545 S
C318   C316    1.349   1_545 S
C319   C318    1.372   1_565 S
C319   H320    0.932   .     S
C319   C321    1.389   .     S
C321   H322    0.931   .     S
O323   C326    1.537   1_556 S
N324   H325    0.860   .     S
N324   C332    1.432   .     S
N324   C352    1.327   1_554 S
C326   O323    1.537   1_554 S
C326   C327    1.446   .     S
C327   C328    1.334   1_454 S
C327   C335    1.364   .     S
C328   C327    1.334   1_656 S
C328   H329    0.931   .     S
C328   C330    1.394   .     S
C330   H331    0.930   .     S
C330   C332    1.384   1_556 S
C332   C333    1.390   .     S
C332   C330    1.384   1_554 S
C333   H334    0.930   .     S
C333   C335    1.434   1_655 S
C335   H336    0.931   .     S
C335   C333    1.434   1_455 S
O337   C352    1.187   .     S
N338   C339    1.340   1_556 S
N338   C346    1.317   .     S
N338   Co265   2.181   1_566 S
C339   N338    1.340   1_554 S
C339   H340    0.931   .     S
C339   C341    1.374   .     S
C341   H342    0.929   .     S
C341   C343    1.388   1_554 S
C343   C341    1.388   1_556 S
C343   C344    1.374   .     S
C343   C348    1.474   .     S
C344   H345    0.930   .     S
C344   C346    1.395   .     S
C346   H347    0.931   .     S
C348   H349    0.928   .     S
C348   C350    1.303   .     S
C350   H351    0.929   1_556 S
C350   C352    1.504   .     S
H351   C350    0.929   1_554 S
C352   N324    1.327   1_556 S
