data_RIPSIU_FSR
_audit_creation_date              2024-06-11
_audit_creation_method            'Materials Studio'
_symmetry_space_group_name_H-M    'P1'
_symmetry_Int_Tables_number       1
_symmetry_cell_setting            triclinic
loop_
_symmetry_equiv_pos_as_xyz
  x,y,z
_cell_length_a                    13.4738
_cell_length_b                    14.0908
_cell_length_c                    14.5183
_cell_angle_alpha                 106.7990
_cell_angle_beta                  90.4330
_cell_angle_gamma                 112.8800
loop_
_atom_site_label
_atom_site_type_symbol
_atom_site_fract_x
_atom_site_fract_y
_atom_site_fract_z
_atom_site_U_iso_or_equiv
_atom_site_adp_type
_atom_site_occupancy
W1     W     0.67394   0.13337   0.72305   0.00000  Uiso   1.00
O2     O     0.75770   0.19600   0.82860   0.00000  Uiso   1.00
O3     O     0.74710   0.05570   0.65030   0.00000  Uiso   1.00
O4     O     0.56280   0.18020   0.75250   0.00000  Uiso   1.00
O5     O     0.73010   0.23750   0.65910   0.00000  Uiso   1.00
O6     O     0.58250   0.99990   0.73930   0.00000  Uiso   1.00
O7     O     0.62530   0.07410   0.55540   0.00000  Uiso   1.00
W8     W     0.76019   0.99619   0.51683   0.00000  Uiso   1.00
W9     W     0.41086   0.13103   0.70778   0.00000  Uiso   1.00
W10    W     0.73524   0.23946   0.52861   0.00000  Uiso   1.00
W11    W     0.44228   0.88914   0.69200   0.00000  Uiso   1.00
O12    O     0.56900   0.92710   0.45470   0.00000  Uiso   1.00
O13    O     0.79020   0.13670   0.50290   0.00000  Uiso   1.00
O14    O     0.88050   0.99600   0.52410   0.00000  Uiso   1.00
O15    O     0.67240   0.85840   0.52270   0.00000  Uiso   1.00
O16    O     0.72100   0.93890   0.37790   0.00000  Uiso   1.00
O17    O     0.39020   0.00030   0.72540   0.00000  Uiso   1.00
O18    O     0.36830   0.18790   0.80850   0.00000  Uiso   1.00
O19    O     0.45200   0.24750   0.65250   0.00000  Uiso   1.00
O20    O     0.55010   0.10240   0.46730   0.00000  Uiso   1.00
O21    O     0.84410   0.35450   0.54500   0.00000  Uiso   1.00
O22    O     0.62740   0.29380   0.54810   0.00000  Uiso   1.00
O23    O     0.68960   0.19510   0.39430   0.00000  Uiso   1.00
O24    O     0.41560   0.83970   0.78510   0.00000  Uiso   1.00
O25    O     0.50400   0.80180   0.61870   0.00000  Uiso   1.00
W26    W     0.52558   0.75577   0.48189   0.00000  Uiso   1.00
O27    O     0.53520   0.64170   0.47490   0.00000  Uiso   1.00
O28    O     0.10410   0.52890   0.60970   0.00000  Uiso   1.00
O29    O     0.03230   0.38230   0.43240   0.00000  Uiso   1.00
C30    C     0.19600   0.51790   0.59450   0.00000  Uiso   1.00
C31    C     0.97300   0.30500   0.37200   0.00000  Uiso   1.00
N32    N     0.26820   0.54410   0.66610   0.00000  Uiso   1.00
H33    H     0.20840   0.49100   0.53130   0.00000  Uiso   1.00
N34    N     0.96140   0.20080   0.34220   0.00000  Uiso   1.00
H35    H     0.92320   0.31770   0.33740   0.00000  Uiso   1.00
C36    C     0.25300   0.58300   0.76600   0.00000  Uiso   1.00
C37    C     0.36800   0.53600   0.64500   0.00000  Uiso   1.00
C38    C     0.03500   0.17700   0.40100   0.00000  Uiso   1.00
C39    C     0.88900   0.11400   0.26300   0.00000  Uiso   1.00
H40    H     0.18110   0.58140   0.76870   0.00000  Uiso   1.00
H41    H     0.30590   0.65540   0.79590   0.00000  Uiso   1.00
H42    H     0.26080   0.53630   0.80010   0.00000  Uiso   1.00
H43    H     0.36600   0.50860   0.57580   0.00000  Uiso   1.00
H44    H     0.37950   0.48800   0.67470   0.00000  Uiso   1.00
H45    H     0.42700   0.60680   0.66970   0.00000  Uiso   1.00
H46    H     0.07990   0.24210   0.45100   0.00000  Uiso   1.00
H47    H     0.07930   0.14960   0.35930   0.00000  Uiso   1.00
H48    H     0.99160   0.12330   0.42920   0.00000  Uiso   1.00
H49    H     0.84650   0.13950   0.23200   0.00000  Uiso   1.00
H50    H     0.84190   0.05750   0.28700   0.00000  Uiso   1.00
H51    H     0.93000   0.08570   0.21790   0.00000  Uiso   1.00
W52    W     0.32606   0.86663   0.27695   0.00000  Uiso   1.00
O53    O     0.24230   0.80400   0.17140   0.00000  Uiso   1.00
O54    O     0.25290   0.94430   0.34970   0.00000  Uiso   1.00
O55    O     0.43720   0.81980   0.24750   0.00000  Uiso   1.00
O56    O     0.26990   0.76250   0.34090   0.00000  Uiso   1.00
O57    O     0.41750   0.00010   0.26070   0.00000  Uiso   1.00
O58    O     0.37470   0.92590   0.44460   0.00000  Uiso   1.00
W59    W     0.23981   0.00381   0.48317   0.00000  Uiso   1.00
W60    W     0.58914   0.86897   0.29222   0.00000  Uiso   1.00
W61    W     0.26476   0.76054   0.47139   0.00000  Uiso   1.00
W62    W     0.55772   0.11086   0.30800   0.00000  Uiso   1.00
O63    O     0.43100   0.07290   0.54530   0.00000  Uiso   1.00
O64    O     0.20980   0.86330   0.49710   0.00000  Uiso   1.00
O65    O     0.11950   0.00400   0.47590   0.00000  Uiso   1.00
O66    O     0.32760   0.14160   0.47730   0.00000  Uiso   1.00
O67    O     0.27900   0.06110   0.62210   0.00000  Uiso   1.00
O68    O     0.60980   0.99970   0.27460   0.00000  Uiso   1.00
O69    O     0.63170   0.81210   0.19150   0.00000  Uiso   1.00
O70    O     0.54800   0.75250   0.34750   0.00000  Uiso   1.00
O71    O     0.44990   0.89760   0.53270   0.00000  Uiso   1.00
O72    O     0.15590   0.64550   0.45500   0.00000  Uiso   1.00
O73    O     0.37260   0.70620   0.45190   0.00000  Uiso   1.00
O74    O     0.31040   0.80490   0.60570   0.00000  Uiso   1.00
O75    O     0.58440   0.16030   0.21490   0.00000  Uiso   1.00
O76    O     0.49600   0.19820   0.38130   0.00000  Uiso   1.00
W77    W     0.47442   0.24423   0.51811   0.00000  Uiso   1.00
O78    O     0.46480   0.35830   0.52510   0.00000  Uiso   1.00
O79    O     0.89590   0.47110   0.39030   0.00000  Uiso   1.00
O80    O     0.96770   0.61770   0.56760   0.00000  Uiso   1.00
C81    C     0.80400   0.48210   0.40550   0.00000  Uiso   1.00
C82    C     0.02700   0.69500   0.62800   0.00000  Uiso   1.00
N83    N     0.73180   0.45590   0.33390   0.00000  Uiso   1.00
H84    H     0.79160   0.50900   0.46870   0.00000  Uiso   1.00
N85    N     0.03860   0.79920   0.65780   0.00000  Uiso   1.00
H86    H     0.07680   0.68230   0.66260   0.00000  Uiso   1.00
C87    C     0.74700   0.41700   0.23400   0.00000  Uiso   1.00
C88    C     0.63200   0.46400   0.35500   0.00000  Uiso   1.00
C89    C     0.96500   0.82300   0.59900   0.00000  Uiso   1.00
C90    C     0.11100   0.88600   0.73700   0.00000  Uiso   1.00
H91    H     0.81890   0.41860   0.23130   0.00000  Uiso   1.00
H92    H     0.69410   0.34460   0.20410   0.00000  Uiso   1.00
H93    H     0.73920   0.46370   0.19990   0.00000  Uiso   1.00
H94    H     0.63400   0.49140   0.42420   0.00000  Uiso   1.00
H95    H     0.62050   0.51200   0.32530   0.00000  Uiso   1.00
H96    H     0.57300   0.39320   0.33030   0.00000  Uiso   1.00
H97    H     0.92010   0.75790   0.54900   0.00000  Uiso   1.00
H98    H     0.92070   0.85040   0.64070   0.00000  Uiso   1.00
H99    H     0.00840   0.87670   0.57080   0.00000  Uiso   1.00
H100   H     0.15350   0.86050   0.76800   0.00000  Uiso   1.00
H101   H     0.15810   0.94250   0.71300   0.00000  Uiso   1.00
H102   H     0.07000   0.91430   0.78210   0.00000  Uiso   1.00
Si103  Si    0.50000  -0.00000   0.50000   0.00000  Uiso   1.00
Cu104  Cu    0.00000   0.50000   0.50000   0.00000  Uiso   1.00
loop_
_geom_bond_atom_site_label_1
_geom_bond_atom_site_label_2
_geom_bond_distance
_geom_bond_site_symmetry_2
_ccdc_geom_bond_type
W1     O2      1.679   .     S
W1     O3      1.863   .     S
W1     O4      1.864   .     S
W1     O5      1.877   .     S
W1     O6      1.889   1_545 S
W1     O7      2.330   .     S
O3     W8      1.916   1_545 S
O4     W9      1.926   .     S
O5     W10     1.904   .     S
O6     W1      1.889   1_565 S
O6     W11     1.883   .     S
O7     Si103   1.646   .     S
O7     W8      2.456   1_545 S
O7     W10     2.371   .     S
W8     O3      1.916   1_565 S
W8     O12     2.430   .     S
W8     O13     1.933   1_565 S
W8     O14     1.625   .     S
W8     O15     1.867   .     S
W8     O16     1.926   .     S
W8     O7      2.456   1_565 S
W9     O17     1.847   .     S
W9     O18     1.674   .     S
W9     O19     1.925   .     S
W9     O63     2.318   .     S
W9     O67     1.890   .     S
W10    O20     2.444   .     S
W10    O21     1.661   .     S
W10    O22     1.877   .     S
W10    O23     1.884   .     S
W10    O13     1.819   .     S
W11    O24     1.673   .     S
W11    O25     1.841   .     S
W11    O71     2.351   .     S
W11    O74     1.898   .     S
W11    O17     1.898   1_565 S
O12    W26     2.405   .     S
O12    W60     2.318   .     S
O12    Si103   1.647   1_565 S
O13    W8      1.933   1_545 S
O15    W26     1.902   .     S
O16    W60     1.890   .     S
O17    W11     1.898   1_545 S
O19    W77     1.967   .     S
O20    W62     2.351   .     S
O20    Si103   1.551   .     S
O21    Cu104   2.547   1_655 S
O22    W77     1.902   .     S
O23    W62     1.898   .     S
O25    W26     1.965   .     S
W26    O27     1.637   .     S
W26    O70     1.967   .     S
W26    O73     1.902   .     S
O28    Cu104   1.954   .     S
O28    C30     1.319   .     S
O29    Cu104   1.879   .     S
O29    C31     1.164   1_455 S
C30    N32     1.283   .     S
C30    H33     0.930   .     S
C31    O29     1.164   1_655 S
C31    N34     1.349   .     S
C31    H35     0.935   .     S
N32    C36     1.442   .     S
N32    C37     1.421   .     S
N34    C38     1.495   1_655 S
N34    C39     1.418   .     S
C36    H40     0.962   .     S
C36    H41     0.955   .     S
C36    H42     0.965   .     S
C37    H43     0.963   .     S
C37    H44     0.957   .     S
C37    H45     0.963   .     S
C38    N34     1.495   1_455 S
C38    H46     0.955   .     S
C38    H47     0.960   .     S
C38    H48     0.960   1_455 S
C39    H49     0.953   .     S
C39    H50     0.964   .     S
C39    H51     0.959   .     S
H48    C38     0.960   1_655 S
W52    O53     1.679   .     S
W52    O54     1.863   .     S
W52    O55     1.864   .     S
W52    O56     1.877   .     S
W52    O57     1.889   1_565 S
W52    O58     2.330   .     S
O54    W59     1.916   1_565 S
O55    W60     1.926   .     S
O56    W61     1.904   .     S
O57    W52     1.889   1_545 S
O57    W62     1.883   .     S
O58    Si103   1.646   1_565 S
O58    W59     2.456   1_565 S
O58    W61     2.371   .     S
W59    O54     1.916   1_545 S
W59    O63     2.430   .     S
W59    O64     1.933   1_545 S
W59    O65     1.625   .     S
W59    O66     1.867   .     S
W59    O67     1.926   .     S
W59    O58     2.456   1_545 S
W60    O68     1.847   .     S
W60    O69     1.674   .     S
W60    O70     1.925   .     S
W61    O71     2.444   .     S
W61    O72     1.661   .     S
W61    O73     1.877   .     S
W61    O74     1.884   .     S
W61    O64     1.819   .     S
W62    O75     1.673   .     S
W62    O76     1.841   .     S
W62    O68     1.898   1_545 S
O63    W77     2.405   .     S
O63    Si103   1.647   .     S
O64    W59     1.933   1_565 S
O66    W77     1.902   .     S
O68    W62     1.898   1_565 S
O71    Si103   1.551   1_565 S
O72    Cu104   2.547   .     S
O76    W77     1.965   .     S
W77    O78     1.637   .     S
O79    Cu104   1.954   1_655 S
O79    C81     1.319   .     S
O80    Cu104   1.879   1_655 S
O80    C82     1.164   1_655 S
C81    N83     1.283   .     S
C81    H84     0.930   .     S
C82    O80     1.164   1_455 S
C82    N85     1.349   .     S
C82    H86     0.935   .     S
N83    C87     1.442   .     S
N83    C88     1.421   .     S
N85    C89     1.495   1_455 S
N85    C90     1.418   .     S
C87    H91     0.962   .     S
C87    H92     0.955   .     S
C87    H93     0.965   .     S
C88    H94     0.963   .     S
C88    H95     0.957   .     S
C88    H96     0.963   .     S
C89    N85     1.495   1_655 S
C89    H97     0.955   .     S
C89    H98     0.960   .     S
C89    H99     0.960   1_655 S
C90    H100    0.953   .     S
C90    H101    0.964   .     S
C90    H102    0.959   .     S
H99    C89     0.960   1_455 S
Si103  O58     1.646   1_545 S
Si103  O12     1.647   1_545 S
Si103  O71     1.551   1_545 S
Cu104  O21     2.547   1_455 S
Cu104  O79     1.954   1_455 S
Cu104  O80     1.879   1_455 S
