data_RIYWED_FSR
_audit_creation_date              2024-06-11
_audit_creation_method            'Materials Studio'
_symmetry_space_group_name_H-M    'P1'
_symmetry_Int_Tables_number       1
_symmetry_cell_setting            triclinic
loop_
_symmetry_equiv_pos_as_xyz
  x,y,z
_cell_length_a                    23.1120
_cell_length_b                    6.9534
_cell_length_c                    22.6380
_cell_angle_alpha                 90.0000
_cell_angle_beta                  90.0000
_cell_angle_gamma                 90.0000
loop_
_atom_site_label
_atom_site_type_symbol
_atom_site_fract_x
_atom_site_fract_y
_atom_site_fract_z
_atom_site_U_iso_or_equiv
_atom_site_adp_type
_atom_site_occupancy
Ca1    Ca    0.46847   0.93570   0.50113   0.00000  Uiso   1.00
Ca2    Ca    0.45707   0.56320   0.99093   0.00000  Uiso   1.00
P3     P     0.41484   0.43750   0.52588   0.00000  Uiso   1.00
P4     P     0.46557   0.91840   0.34265   0.00000  Uiso   1.00
P5     P     0.40479   0.06400   0.96294   0.00000  Uiso   1.00
O6     O     0.45130   0.61190   0.51480   0.00000  Uiso   1.00
O7     O     0.45080   0.25860   0.51350   0.00000  Uiso   1.00
O8     O     0.39110   0.44290   0.59080   0.00000  Uiso   1.00
H9     H     0.38030   0.33220   0.60080   0.00000  Uiso   1.00
O10    O     0.35070   0.30270   0.30160   0.00000  Uiso   1.00
H11    H     0.34660   0.26150   0.26690   0.00000  Uiso   1.00
O12    O     0.25300   0.31790   0.29680   0.00000  Uiso   1.00
O13    O     0.49870   0.91950   0.60040   0.00000  Uiso   1.00
H14    H     0.49370   0.02530   0.62350   0.00000  Uiso   1.00
H15    H     0.48570   0.81910   0.61920   0.00000  Uiso   1.00
O16    O     0.47770   0.55460   0.89010   0.00000  Uiso   1.00
H17    H     0.45810   0.47550   0.86970   0.00000  Uiso   1.00
H18    H     0.50710   0.61430   0.87720   0.00000  Uiso   1.00
O19    O     0.19080   0.58170   0.55680   0.00000  Uiso   1.00
H20    H     0.15690   0.59490   0.56940   0.00000  Uiso   1.00
O21    O     0.14510   0.56150   0.46930   0.00000  Uiso   1.00
O22    O     0.43410   0.91360   0.40160   0.00000  Uiso   1.00
O23    O     0.52340   0.81090   0.33990   0.00000  Uiso   1.00
O24    O     0.47400   0.13610   0.32870   0.00000  Uiso   1.00
H25    H     0.47630   0.15150   0.29190   0.00000  Uiso   1.00
O26    O     0.41610   0.58660   0.08700   0.00000  Uiso   1.00
O27    O     0.48230   0.46280   0.14660   0.00000  Uiso   1.00
O28    O     0.23940   0.81890   0.30030   0.00000  Uiso   1.00
H29    H     0.20310   0.81130   0.30060   0.00000  Uiso   1.00
O30    O     0.23010   0.68520   0.20910   0.00000  Uiso   1.00
O31    O     0.44000   0.23460   0.98090   0.00000  Uiso   1.00
O32    O     0.44150   0.88390   0.97320   0.00000  Uiso   1.00
O33    O     0.38320   0.07740   0.89740   0.00000  Uiso   1.00
H34    H     0.41000   0.12030   0.87600   0.00000  Uiso   1.00
O35    O     0.24500   0.17320   0.18980   0.00000  Uiso   1.00
H36    H     0.24950   0.15600   0.22620   0.00000  Uiso   1.00
O37    O     0.34210   0.20570   0.18640   0.00000  Uiso   1.00
O38    O     0.17620   0.92610   0.93230   0.00000  Uiso   1.00
H39    H     0.14160   0.91600   0.92130   0.00000  Uiso   1.00
O40    O     0.13460   0.95080   0.02140   0.00000  Uiso   1.00
C41    C     0.34970   0.44020   0.48130   0.00000  Uiso   1.00
C42    C     0.35180   0.39210   0.42140   0.00000  Uiso   1.00
H43    H     0.38730   0.35500   0.40380   0.00000  Uiso   1.00
C44    C     0.30100   0.39870   0.38750   0.00000  Uiso   1.00
C45    C     0.30050   0.33800   0.32420   0.00000  Uiso   1.00
C46    C     0.24850   0.45000   0.41360   0.00000  Uiso   1.00
H47    H     0.21410   0.45090   0.39060   0.00000  Uiso   1.00
C48    C     0.24620   0.49980   0.47290   0.00000  Uiso   1.00
C49    C     0.18960   0.55170   0.49890   0.00000  Uiso   1.00
C50    C     0.29750   0.49600   0.50620   0.00000  Uiso   1.00
H51    H     0.29640   0.53260   0.54660   0.00000  Uiso   1.00
C52    C     0.41930   0.81900   0.28580   0.00000  Uiso   1.00
C53    C     0.44410   0.73600   0.23600   0.00000  Uiso   1.00
H54    H     0.48510   0.72950   0.23280   0.00000  Uiso   1.00
C55    C     0.41040   0.66300   0.19150   0.00000  Uiso   1.00
C56    C     0.44160   0.56900   0.13840   0.00000  Uiso   1.00
C57    C     0.35080   0.67290   0.19460   0.00000  Uiso   1.00
H58    H     0.32750   0.62650   0.16310   0.00000  Uiso   1.00
C59    C     0.32450   0.75600   0.24680   0.00000  Uiso   1.00
C60    C     0.25960   0.74800   0.24980   0.00000  Uiso   1.00
C61    C     0.35940   0.82500   0.29030   0.00000  Uiso   1.00
H62    H     0.34230   0.87740   0.32490   0.00000  Uiso   1.00
C63    C     0.33930   0.05410   0.00470   0.00000  Uiso   1.00
C64    C     0.34120   0.09810   0.06450   0.00000  Uiso   1.00
H65    H     0.37760   0.12760   0.08180   0.00000  Uiso   1.00
C66    C     0.29200   0.10100   0.10010   0.00000  Uiso   1.00
C67    C     0.29540   0.16600   0.16320   0.00000  Uiso   1.00
C68    C     0.23930   0.04890   0.07490   0.00000  Uiso   1.00
H69    H     0.20540   0.04600   0.09870   0.00000  Uiso   1.00
C70    C     0.23560   0.00080   0.01480   0.00000  Uiso   1.00
C71    C     0.17790   0.95730   0.99130   0.00000  Uiso   1.00
C72    C     0.28590   0.00750   0.98030   0.00000  Uiso   1.00
H73    H     0.28340   0.97950   0.93930   0.00000  Uiso   1.00
Ca74   Ca    0.53153   0.06430   0.00113   0.00000  Uiso   1.00
Ca75   Ca    0.54293   0.43680   0.49093   0.00000  Uiso   1.00
P76    P     0.58516   0.56250   0.02588   0.00000  Uiso   1.00
P77    P     0.53443   0.08160   0.84265   0.00000  Uiso   1.00
P78    P     0.59521   0.93600   0.46294   0.00000  Uiso   1.00
O79    O     0.54870   0.38810   0.01480   0.00000  Uiso   1.00
O80    O     0.54920   0.74140   0.01350   0.00000  Uiso   1.00
O81    O     0.60890   0.55710   0.09080   0.00000  Uiso   1.00
H82    H     0.61970   0.66780   0.10080   0.00000  Uiso   1.00
O83    O     0.64930   0.69730   0.80160   0.00000  Uiso   1.00
H84    H     0.65340   0.73850   0.76690   0.00000  Uiso   1.00
O85    O     0.74700   0.68210   0.79680   0.00000  Uiso   1.00
O86    O     0.50130   0.08050   0.10040   0.00000  Uiso   1.00
H87    H     0.50630   0.97470   0.12350   0.00000  Uiso   1.00
H88    H     0.51430   0.18090   0.11920   0.00000  Uiso   1.00
O89    O     0.52230   0.44540   0.39010   0.00000  Uiso   1.00
H90    H     0.54190   0.52450   0.36970   0.00000  Uiso   1.00
H91    H     0.49290   0.38570   0.37720   0.00000  Uiso   1.00
O92    O     0.80920   0.41830   0.05680   0.00000  Uiso   1.00
H93    H     0.84310   0.40510   0.06940   0.00000  Uiso   1.00
O94    O     0.85490   0.43850   0.96930   0.00000  Uiso   1.00
O95    O     0.56590   0.08640   0.90160   0.00000  Uiso   1.00
O96    O     0.47660   0.18910   0.83990   0.00000  Uiso   1.00
O97    O     0.52600   0.86390   0.82870   0.00000  Uiso   1.00
H98    H     0.52370   0.84850   0.79190   0.00000  Uiso   1.00
O99    O     0.58390   0.41340   0.58700   0.00000  Uiso   1.00
O100   O     0.51770   0.53720   0.64660   0.00000  Uiso   1.00
O101   O     0.76060   0.18110   0.80030   0.00000  Uiso   1.00
H102   H     0.79690   0.18870   0.80060   0.00000  Uiso   1.00
O103   O     0.76990   0.31480   0.70910   0.00000  Uiso   1.00
O104   O     0.56000   0.76540   0.48090   0.00000  Uiso   1.00
O105   O     0.55850   0.11610   0.47320   0.00000  Uiso   1.00
O106   O     0.61680   0.92260   0.39740   0.00000  Uiso   1.00
H107   H     0.59000   0.87970   0.37600   0.00000  Uiso   1.00
O108   O     0.75500   0.82680   0.68980   0.00000  Uiso   1.00
H109   H     0.75050   0.84400   0.72620   0.00000  Uiso   1.00
O110   O     0.65790   0.79430   0.68640   0.00000  Uiso   1.00
O111   O     0.82380   0.07390   0.43230   0.00000  Uiso   1.00
H112   H     0.85840   0.08400   0.42130   0.00000  Uiso   1.00
O113   O     0.86540   0.04920   0.52140   0.00000  Uiso   1.00
C114   C     0.65030   0.55980   0.98130   0.00000  Uiso   1.00
C115   C     0.64820   0.60790   0.92140   0.00000  Uiso   1.00
H116   H     0.61270   0.64500   0.90380   0.00000  Uiso   1.00
C117   C     0.69900   0.60130   0.88750   0.00000  Uiso   1.00
C118   C     0.69950   0.66200   0.82420   0.00000  Uiso   1.00
C119   C     0.75150   0.55000   0.91360   0.00000  Uiso   1.00
H120   H     0.78590   0.54910   0.89060   0.00000  Uiso   1.00
C121   C     0.75380   0.50020   0.97290   0.00000  Uiso   1.00
C122   C     0.81040   0.44830   0.99890   0.00000  Uiso   1.00
C123   C     0.70250   0.50400   0.00620   0.00000  Uiso   1.00
H124   H     0.70360   0.46740   0.04660   0.00000  Uiso   1.00
C125   C     0.58070   0.18100   0.78580   0.00000  Uiso   1.00
C126   C     0.55590   0.26400   0.73600   0.00000  Uiso   1.00
H127   H     0.51490   0.27050   0.73280   0.00000  Uiso   1.00
C128   C     0.58960   0.33700   0.69150   0.00000  Uiso   1.00
C129   C     0.55840   0.43100   0.63840   0.00000  Uiso   1.00
C130   C     0.64920   0.32710   0.69460   0.00000  Uiso   1.00
H131   H     0.67250   0.37350   0.66310   0.00000  Uiso   1.00
C132   C     0.67550   0.24400   0.74680   0.00000  Uiso   1.00
C133   C     0.74040   0.25200   0.74980   0.00000  Uiso   1.00
C134   C     0.64060   0.17500   0.79030   0.00000  Uiso   1.00
H135   H     0.65770   0.12260   0.82490   0.00000  Uiso   1.00
C136   C     0.66070   0.94590   0.50470   0.00000  Uiso   1.00
C137   C     0.65880   0.90190   0.56450   0.00000  Uiso   1.00
H138   H     0.62240   0.87240   0.58180   0.00000  Uiso   1.00
C139   C     0.70800   0.89900   0.60010   0.00000  Uiso   1.00
C140   C     0.70460   0.83400   0.66320   0.00000  Uiso   1.00
C141   C     0.76070   0.95110   0.57490   0.00000  Uiso   1.00
H142   H     0.79460   0.95400   0.59870   0.00000  Uiso   1.00
C143   C     0.76440   0.99920   0.51480   0.00000  Uiso   1.00
C144   C     0.82210   0.04270   0.49130   0.00000  Uiso   1.00
C145   C     0.71410   0.99250   0.48030   0.00000  Uiso   1.00
H146   H     0.71660   0.02050   0.43930   0.00000  Uiso   1.00
Ca147  Ca    0.96847   0.06430   0.50113   0.00000  Uiso   1.00
Ca148  Ca    0.95707   0.43680   0.99093   0.00000  Uiso   1.00
P149   P     0.91484   0.56250   0.52588   0.00000  Uiso   1.00
P150   P     0.96557   0.08160   0.34265   0.00000  Uiso   1.00
P151   P     0.90479   0.93600   0.96294   0.00000  Uiso   1.00
O152   O     0.95130   0.38810   0.51480   0.00000  Uiso   1.00
O153   O     0.95080   0.74140   0.51350   0.00000  Uiso   1.00
O154   O     0.89110   0.55710   0.59080   0.00000  Uiso   1.00
H155   H     0.88030   0.66780   0.60080   0.00000  Uiso   1.00
O156   O     0.85070   0.69730   0.30160   0.00000  Uiso   1.00
H157   H     0.84660   0.73850   0.26690   0.00000  Uiso   1.00
O158   O     0.75300   0.68210   0.29680   0.00000  Uiso   1.00
O159   O     0.99870   0.08050   0.60040   0.00000  Uiso   1.00
H160   H     0.99370   0.97470   0.62350   0.00000  Uiso   1.00
H161   H     0.98570   0.18090   0.61920   0.00000  Uiso   1.00
O162   O     0.97770   0.44540   0.89010   0.00000  Uiso   1.00
H163   H     0.95810   0.52450   0.86970   0.00000  Uiso   1.00
H164   H     0.00710   0.38570   0.87720   0.00000  Uiso   1.00
O165   O     0.69080   0.41830   0.55680   0.00000  Uiso   1.00
H166   H     0.65690   0.40510   0.56940   0.00000  Uiso   1.00
O167   O     0.64510   0.43850   0.46930   0.00000  Uiso   1.00
O168   O     0.93410   0.08640   0.40160   0.00000  Uiso   1.00
O169   O     0.02340   0.18910   0.33990   0.00000  Uiso   1.00
O170   O     0.97400   0.86390   0.32870   0.00000  Uiso   1.00
H171   H     0.97630   0.84850   0.29190   0.00000  Uiso   1.00
O172   O     0.91610   0.41340   0.08700   0.00000  Uiso   1.00
O173   O     0.98230   0.53720   0.14660   0.00000  Uiso   1.00
O174   O     0.73940   0.18110   0.30030   0.00000  Uiso   1.00
H175   H     0.70310   0.18870   0.30060   0.00000  Uiso   1.00
O176   O     0.73010   0.31480   0.20910   0.00000  Uiso   1.00
O177   O     0.94000   0.76540   0.98090   0.00000  Uiso   1.00
O178   O     0.94150   0.11610   0.97320   0.00000  Uiso   1.00
O179   O     0.88320   0.92260   0.89740   0.00000  Uiso   1.00
H180   H     0.91000   0.87970   0.87600   0.00000  Uiso   1.00
O181   O     0.74500   0.82680   0.18980   0.00000  Uiso   1.00
H182   H     0.74950   0.84400   0.22620   0.00000  Uiso   1.00
O183   O     0.84210   0.79430   0.18640   0.00000  Uiso   1.00
O184   O     0.67620   0.07390   0.93230   0.00000  Uiso   1.00
H185   H     0.64160   0.08400   0.92130   0.00000  Uiso   1.00
O186   O     0.63460   0.04920   0.02140   0.00000  Uiso   1.00
C187   C     0.84970   0.55980   0.48130   0.00000  Uiso   1.00
C188   C     0.85180   0.60790   0.42140   0.00000  Uiso   1.00
H189   H     0.88730   0.64500   0.40380   0.00000  Uiso   1.00
C190   C     0.80100   0.60130   0.38750   0.00000  Uiso   1.00
C191   C     0.80050   0.66200   0.32420   0.00000  Uiso   1.00
C192   C     0.74850   0.55000   0.41360   0.00000  Uiso   1.00
H193   H     0.71410   0.54910   0.39060   0.00000  Uiso   1.00
C194   C     0.74620   0.50020   0.47290   0.00000  Uiso   1.00
C195   C     0.68960   0.44830   0.49890   0.00000  Uiso   1.00
C196   C     0.79750   0.50400   0.50620   0.00000  Uiso   1.00
H197   H     0.79640   0.46740   0.54660   0.00000  Uiso   1.00
C198   C     0.91930   0.18100   0.28580   0.00000  Uiso   1.00
C199   C     0.94410   0.26400   0.23600   0.00000  Uiso   1.00
H200   H     0.98510   0.27050   0.23280   0.00000  Uiso   1.00
C201   C     0.91040   0.33700   0.19150   0.00000  Uiso   1.00
C202   C     0.94160   0.43100   0.13840   0.00000  Uiso   1.00
C203   C     0.85080   0.32710   0.19460   0.00000  Uiso   1.00
H204   H     0.82750   0.37350   0.16310   0.00000  Uiso   1.00
C205   C     0.82450   0.24400   0.24680   0.00000  Uiso   1.00
C206   C     0.75960   0.25200   0.24980   0.00000  Uiso   1.00
C207   C     0.85940   0.17500   0.29030   0.00000  Uiso   1.00
H208   H     0.84230   0.12260   0.32490   0.00000  Uiso   1.00
C209   C     0.83930   0.94590   0.00470   0.00000  Uiso   1.00
C210   C     0.84120   0.90190   0.06450   0.00000  Uiso   1.00
H211   H     0.87760   0.87240   0.08180   0.00000  Uiso   1.00
C212   C     0.79200   0.89900   0.10010   0.00000  Uiso   1.00
C213   C     0.79540   0.83400   0.16320   0.00000  Uiso   1.00
C214   C     0.73930   0.95110   0.07490   0.00000  Uiso   1.00
H215   H     0.70540   0.95400   0.09870   0.00000  Uiso   1.00
C216   C     0.73560   0.99920   0.01480   0.00000  Uiso   1.00
C217   C     0.67790   0.04270   0.99130   0.00000  Uiso   1.00
C218   C     0.78590   0.99250   0.98030   0.00000  Uiso   1.00
H219   H     0.78340   0.02050   0.93930   0.00000  Uiso   1.00
Ca220  Ca    0.03153   0.93570   0.00113   0.00000  Uiso   1.00
Ca221  Ca    0.04293   0.56320   0.49093   0.00000  Uiso   1.00
P222   P     0.08516   0.43750   0.02588   0.00000  Uiso   1.00
P223   P     0.03443   0.91840   0.84265   0.00000  Uiso   1.00
P224   P     0.09521   0.06400   0.46294   0.00000  Uiso   1.00
O225   O     0.04870   0.61190   0.01480   0.00000  Uiso   1.00
O226   O     0.04920   0.25860   0.01350   0.00000  Uiso   1.00
O227   O     0.10890   0.44290   0.09080   0.00000  Uiso   1.00
H228   H     0.11970   0.33220   0.10080   0.00000  Uiso   1.00
O229   O     0.14930   0.30270   0.80160   0.00000  Uiso   1.00
H230   H     0.15340   0.26150   0.76690   0.00000  Uiso   1.00
O231   O     0.24700   0.31790   0.79680   0.00000  Uiso   1.00
O232   O     0.00130   0.91950   0.10040   0.00000  Uiso   1.00
H233   H     0.00630   0.02530   0.12350   0.00000  Uiso   1.00
H234   H     0.01430   0.81910   0.11920   0.00000  Uiso   1.00
O235   O     0.02230   0.55460   0.39010   0.00000  Uiso   1.00
H236   H     0.04190   0.47550   0.36970   0.00000  Uiso   1.00
H237   H     0.99290   0.61430   0.37720   0.00000  Uiso   1.00
O238   O     0.30920   0.58170   0.05680   0.00000  Uiso   1.00
H239   H     0.34310   0.59490   0.06940   0.00000  Uiso   1.00
O240   O     0.35490   0.56150   0.96930   0.00000  Uiso   1.00
O241   O     0.06590   0.91360   0.90160   0.00000  Uiso   1.00
O242   O     0.97660   0.81090   0.83990   0.00000  Uiso   1.00
O243   O     0.02600   0.13610   0.82870   0.00000  Uiso   1.00
H244   H     0.02370   0.15150   0.79190   0.00000  Uiso   1.00
O245   O     0.08390   0.58660   0.58700   0.00000  Uiso   1.00
O246   O     0.01770   0.46280   0.64660   0.00000  Uiso   1.00
O247   O     0.26060   0.81890   0.80030   0.00000  Uiso   1.00
H248   H     0.29690   0.81130   0.80060   0.00000  Uiso   1.00
O249   O     0.26990   0.68520   0.70910   0.00000  Uiso   1.00
O250   O     0.06000   0.23460   0.48090   0.00000  Uiso   1.00
O251   O     0.05850   0.88390   0.47320   0.00000  Uiso   1.00
O252   O     0.11680   0.07740   0.39740   0.00000  Uiso   1.00
H253   H     0.09000   0.12030   0.37600   0.00000  Uiso   1.00
O254   O     0.25500   0.17320   0.68980   0.00000  Uiso   1.00
H255   H     0.25050   0.15600   0.72620   0.00000  Uiso   1.00
O256   O     0.15790   0.20570   0.68640   0.00000  Uiso   1.00
O257   O     0.32380   0.92610   0.43230   0.00000  Uiso   1.00
H258   H     0.35840   0.91600   0.42130   0.00000  Uiso   1.00
O259   O     0.36540   0.95080   0.52140   0.00000  Uiso   1.00
C260   C     0.15030   0.44020   0.98130   0.00000  Uiso   1.00
C261   C     0.14820   0.39210   0.92140   0.00000  Uiso   1.00
H262   H     0.11270   0.35500   0.90380   0.00000  Uiso   1.00
C263   C     0.19900   0.39870   0.88750   0.00000  Uiso   1.00
C264   C     0.19950   0.33800   0.82420   0.00000  Uiso   1.00
C265   C     0.25150   0.45000   0.91360   0.00000  Uiso   1.00
H266   H     0.28590   0.45090   0.89060   0.00000  Uiso   1.00
C267   C     0.25380   0.49980   0.97290   0.00000  Uiso   1.00
C268   C     0.31040   0.55170   0.99890   0.00000  Uiso   1.00
C269   C     0.20250   0.49600   0.00620   0.00000  Uiso   1.00
H270   H     0.20360   0.53260   0.04660   0.00000  Uiso   1.00
C271   C     0.08070   0.81900   0.78580   0.00000  Uiso   1.00
C272   C     0.05590   0.73600   0.73600   0.00000  Uiso   1.00
H273   H     0.01490   0.72950   0.73280   0.00000  Uiso   1.00
C274   C     0.08960   0.66300   0.69150   0.00000  Uiso   1.00
C275   C     0.05840   0.56900   0.63840   0.00000  Uiso   1.00
C276   C     0.14920   0.67290   0.69460   0.00000  Uiso   1.00
H277   H     0.17250   0.62650   0.66310   0.00000  Uiso   1.00
C278   C     0.17550   0.75600   0.74680   0.00000  Uiso   1.00
C279   C     0.24040   0.74800   0.74980   0.00000  Uiso   1.00
C280   C     0.14060   0.82500   0.79030   0.00000  Uiso   1.00
H281   H     0.15770   0.87740   0.82490   0.00000  Uiso   1.00
C282   C     0.16070   0.05410   0.50470   0.00000  Uiso   1.00
C283   C     0.15880   0.09810   0.56450   0.00000  Uiso   1.00
H284   H     0.12240   0.12760   0.58180   0.00000  Uiso   1.00
C285   C     0.20800   0.10100   0.60010   0.00000  Uiso   1.00
C286   C     0.20460   0.16600   0.66320   0.00000  Uiso   1.00
C287   C     0.26070   0.04890   0.57490   0.00000  Uiso   1.00
H288   H     0.29460   0.04600   0.59870   0.00000  Uiso   1.00
C289   C     0.26440   0.00080   0.51480   0.00000  Uiso   1.00
C290   C     0.32210   0.95730   0.49130   0.00000  Uiso   1.00
C291   C     0.21410   0.00750   0.48030   0.00000  Uiso   1.00
H292   H     0.21660   0.97950   0.43930   0.00000  Uiso   1.00
loop_
_geom_bond_atom_site_label_1
_geom_bond_atom_site_label_2
_geom_bond_distance
_geom_bond_site_symmetry_2
_ccdc_geom_bond_type
Ca1    O6      2.307   .     S
Ca1    O13     2.356   .     S
Ca1    O22     2.394   .     S
Ca1    O7      2.299   1_565 S
Ca1    O104    2.467   .     S
Ca1    O105    2.511   1_565 S
Ca1    O259    2.428   .     S
Ca2    O16     2.333   .     S
Ca2    O26     2.378   1_556 S
Ca2    O31     2.330   .     S
Ca2    O79     2.502   1_556 S
Ca2    O80     2.516   1_556 S
Ca2    O240    2.412   .     S
Ca2    O32     2.294   .     S
P3     O6      1.498   .     S
P3     O7      1.522   .     S
P3     O8      1.569   .     S
P3     C41     1.813   .     S
P4     O22     1.520   .     S
P4     O23     1.533   .     S
P4     O24     1.559   1_565 S
P4     C52     1.810   .     S
P5     O31     1.495   .     S
P5     O32     1.530   1_545 S
P5     O33     1.568   .     S
P5     C63     1.786   1_556 S
O6     Ca75    2.502   .     S
O7     Ca1     2.299   1_545 S
O7     Ca75    2.516   .     S
O8     H9      0.840   .     S
O10    H11     0.841   .     S
O10    C45     1.292   .     S
O12    C45     1.269   .     S
O13    H14     0.910   1_565 S
O13    H15     0.871   .     S
H14    O13     0.910   1_545 S
O16    H17     0.849   .     S
O16    H18     0.848   .     S
O19    H20     0.839   .     S
O19    C49     1.328   .     S
O21    C49     1.229   .     S
O21    Ca221   2.412   .     S
O24    P4      1.559   1_545 S
O24    H25     0.842   .     S
O26    Ca2     2.378   1_554 S
O26    C56     1.310   .     S
O27    C56     1.210   .     S
O28    H29     0.841   .     S
O28    C60     1.330   .     S
O30    C60     1.227   .     S
O31    Ca74    2.467   1_556 S
O32    P5      1.530   1_565 S
O32    Ca74    2.511   1_566 S
O33    H34     0.841   .     S
O35    H36     0.839   .     S
O35    C67     1.312   .     S
O37    C67     1.232   .     S
O38    H39     0.840   .     S
O38    C71     1.354   .     S
O40    C71     1.212   1_554 S
O40    Ca220   2.428   .     S
C41    C42     1.397   .     S
C41    C50     1.387   .     S
C42    H43     0.948   .     S
C42    C44     1.403   .     S
C44    C46     1.396   .     S
C44    C45     1.494   .     S
C46    H47     0.950   .     S
C46    C48     1.387   .     S
C48    C49     1.479   .     S
C48    C50     1.405   .     S
C50    H51     0.950   .     S
C52    C53     1.390   .     S
C52    C61     1.389   .     S
C53    H54     0.951   .     S
C53    C55     1.371   .     S
C55    C57     1.381   .     S
C55    C56     1.547   .     S
C57    H58     0.950   .     S
C57    C59     1.449   .     S
C59    C60     1.503   .     S
C59    C61     1.360   .     S
C61    H62     0.950   .     S
C63    P5      1.786   1_554 S
C63    C64     1.389   .     S
C63    C72     1.390   1_554 S
C64    H65     0.950   .     S
C64    C66     1.394   .     S
C66    C68     1.393   .     S
C66    C67     1.500   .     S
C68    H69     0.951   .     S
C68    C70     1.404   .     S
C70    C71     1.467   1_544 S
C70    C72     1.401   1_554 S
C71    O40     1.212   1_556 S
C71    C70     1.467   1_566 S
C72    C63     1.390   1_556 S
C72    H73     0.950   1_545 S
C72    C70     1.401   1_556 S
H73    C72     0.950   1_565 S
Ca74   O79     2.307   .     S
Ca74   O86     2.356   .     S
Ca74   O95     2.394   1_554 S
Ca74   O80     2.299   1_545 S
Ca74   O31     2.467   1_554 S
Ca74   O32     2.511   1_544 S
Ca74   O186    2.428   .     S
Ca75   O89     2.333   .     S
Ca75   O99     2.378   .     S
Ca75   O104    2.330   .     S
Ca75   O167    2.412   .     S
Ca75   O105    2.294   .     S
P76    O79     1.498   .     S
P76    O80     1.522   .     S
P76    O81     1.569   .     S
P76    C114    1.813   1_554 S
P77    O95     1.520   .     S
P77    O96     1.533   .     S
P77    O97     1.559   1_545 S
P77    C125    1.810   .     S
P78    O104    1.495   .     S
P78    O105    1.530   1_565 S
P78    O106    1.568   .     S
P78    C136    1.786   .     S
O79    Ca2     2.502   1_554 S
O80    Ca74    2.299   1_565 S
O80    Ca2     2.516   1_554 S
O81    H82     0.840   .     S
O83    H84     0.841   .     S
O83    C118    1.292   .     S
O85    C118    1.269   .     S
O86    H87     0.910   1_545 S
O86    H88     0.871   .     S
H87    O86     0.910   1_565 S
O89    H90     0.849   .     S
O89    H91     0.848   .     S
O92    H93     0.839   .     S
O92    C122    1.328   1_554 S
O94    C122    1.229   .     S
O94    Ca148   2.412   .     S
O95    Ca74    2.394   1_556 S
O97    P77     1.559   1_565 S
O97    H98     0.842   .     S
O99    C129    1.310   .     S
O100   C129    1.210   .     S
O101   H102    0.841   .     S
O101   C133    1.330   .     S
O103   C133    1.227   .     S
O105   P78     1.530   1_545 S
O105   Ca1     2.511   1_545 S
O106   H107    0.841   .     S
O108   H109    0.839   .     S
O108   C140    1.312   .     S
O110   C140    1.232   .     S
O111   H112    0.840   .     S
O111   C144    1.354   .     S
O113   C144    1.212   .     S
O113   Ca147   2.428   .     S
C114   P76     1.813   1_556 S
C114   C115    1.397   .     S
C114   C123    1.387   1_556 S
C115   H116    0.948   .     S
C115   C117    1.403   .     S
C117   C119    1.396   .     S
C117   C118    1.494   .     S
C119   H120    0.950   .     S
C119   C121    1.387   .     S
C121   C122    1.479   .     S
C121   C123    1.405   1_556 S
C122   O92     1.328   1_556 S
C123   C114    1.387   1_554 S
C123   H124    0.950   .     S
C123   C121    1.405   1_554 S
C125   C126    1.390   .     S
C125   C134    1.389   .     S
C126   H127    0.951   .     S
C126   C128    1.371   .     S
C128   C130    1.381   .     S
C128   C129    1.547   .     S
C130   H131    0.950   .     S
C130   C132    1.449   .     S
C132   C133    1.503   .     S
C132   C134    1.360   .     S
C134   H135    0.950   .     S
C136   C137    1.389   .     S
C136   C145    1.390   .     S
C137   H138    0.950   .     S
C137   C139    1.394   .     S
C139   C141    1.393   .     S
C139   C140    1.500   .     S
C141   H142    0.951   .     S
C141   C143    1.404   .     S
C143   C144    1.467   1_565 S
C143   C145    1.401   .     S
C144   C143    1.467   1_545 S
C145   H146    0.950   1_565 S
H146   C145    0.950   1_545 S
Ca147  O152    2.307   .     S
Ca147  O159    2.356   .     S
Ca147  O168    2.394   .     S
Ca147  O153    2.299   1_545 S
Ca147  O250    2.467   1_655 S
Ca147  O251    2.511   1_645 S
Ca148  O162    2.333   .     S
Ca148  O172    2.378   1_556 S
Ca148  O177    2.330   .     S
Ca148  O225    2.502   1_656 S
Ca148  O226    2.516   1_656 S
Ca148  O178    2.294   .     S
P149   O152    1.498   .     S
P149   O153    1.522   .     S
P149   O154    1.569   .     S
P149   C187    1.813   .     S
P150   O168    1.520   .     S
P150   O169    1.533   1_655 S
P150   O170    1.559   1_545 S
P150   C198    1.810   .     S
P151   O177    1.495   .     S
P151   O178    1.530   1_565 S
P151   O179    1.568   .     S
P151   C209    1.786   1_556 S
O152   Ca221   2.502   1_655 S
O153   Ca147   2.299   1_565 S
O153   Ca221   2.516   1_655 S
O154   H155    0.840   .     S
O156   H157    0.841   .     S
O156   C191    1.292   .     S
O158   C191    1.269   .     S
O159   H160    0.910   1_545 S
O159   H161    0.871   .     S
H160   O159    0.910   1_565 S
O162   H163    0.849   .     S
O162   H164    0.848   1_655 S
H164   O162    0.848   1_455 S
O165   H166    0.839   .     S
O165   C195    1.328   .     S
O167   C195    1.229   .     S
O169   P150    1.533   1_455 S
O170   P150    1.559   1_565 S
O170   H171    0.842   .     S
O172   Ca148   2.378   1_554 S
O172   C202    1.310   .     S
O173   C202    1.210   .     S
O174   H175    0.841   .     S
O174   C206    1.330   .     S
O176   C206    1.227   .     S
O177   Ca220   2.467   1_656 S
O178   P151    1.530   1_545 S
O178   Ca220   2.511   1_646 S
O179   H180    0.841   .     S
O181   H182    0.839   .     S
O181   C213    1.312   .     S
O183   C213    1.232   .     S
O184   H185    0.840   .     S
O184   C217    1.354   .     S
O186   C217    1.212   1_554 S
C187   C188    1.397   .     S
C187   C196    1.387   .     S
C188   H189    0.948   .     S
C188   C190    1.403   .     S
C190   C192    1.396   .     S
C190   C191    1.494   .     S
C192   H193    0.950   .     S
C192   C194    1.387   .     S
C194   C195    1.479   .     S
C194   C196    1.405   .     S
C196   H197    0.950   .     S
C198   C199    1.390   .     S
C198   C207    1.389   .     S
C199   H200    0.951   .     S
C199   C201    1.371   .     S
C201   C203    1.381   .     S
C201   C202    1.547   .     S
C203   H204    0.950   .     S
C203   C205    1.449   .     S
C205   C206    1.503   .     S
C205   C207    1.360   .     S
C207   H208    0.950   .     S
C209   P151    1.786   1_554 S
C209   C210    1.389   .     S
C209   C218    1.390   1_554 S
C210   H211    0.950   .     S
C210   C212    1.394   .     S
C212   C214    1.393   .     S
C212   C213    1.500   .     S
C214   H215    0.951   .     S
C214   C216    1.404   .     S
C216   C217    1.467   1_564 S
C216   C218    1.401   1_554 S
C217   O186    1.212   1_556 S
C217   C216    1.467   1_546 S
C218   C209    1.390   1_556 S
C218   H219    0.950   1_565 S
C218   C216    1.401   1_556 S
H219   C218    0.950   1_545 S
Ca220  O225    2.307   .     S
Ca220  O232    2.356   .     S
Ca220  O241    2.394   1_554 S
Ca220  O226    2.299   1_565 S
Ca220  O177    2.467   1_454 S
Ca220  O178    2.511   1_464 S
Ca221  O235    2.333   .     S
Ca221  O245    2.378   .     S
Ca221  O250    2.330   .     S
Ca221  O152    2.502   1_455 S
Ca221  O153    2.516   1_455 S
Ca221  O251    2.294   .     S
P222   O225    1.498   .     S
P222   O226    1.522   .     S
P222   O227    1.569   .     S
P222   C260    1.813   1_554 S
P223   O241    1.520   .     S
P223   O242    1.533   1_455 S
P223   O243    1.559   1_565 S
P223   C271    1.810   .     S
P224   O250    1.495   .     S
P224   O251    1.530   1_545 S
P224   O252    1.568   .     S
P224   C282    1.786   .     S
O225   Ca148   2.502   1_454 S
O226   Ca220   2.299   1_545 S
O226   Ca148   2.516   1_454 S
O227   H228    0.840   .     S
O229   H230    0.841   .     S
O229   C264    1.292   .     S
O231   C264    1.269   .     S
O232   H233    0.910   1_565 S
O232   H234    0.871   .     S
H233   O232    0.910   1_545 S
O235   H236    0.849   .     S
O235   H237    0.848   1_455 S
H237   O235    0.848   1_655 S
O238   H239    0.839   .     S
O238   C268    1.328   1_554 S
O240   C268    1.229   .     S
O241   Ca220   2.394   1_556 S
O242   P223    1.533   1_655 S
O243   P223    1.559   1_545 S
O243   H244    0.842   .     S
O245   C275    1.310   .     S
O246   C275    1.210   .     S
O247   H248    0.841   .     S
O247   C279    1.330   .     S
O249   C279    1.227   .     S
O250   Ca147   2.467   1_455 S
O251   P224    1.530   1_565 S
O251   Ca147   2.511   1_465 S
O252   H253    0.841   .     S
O254   H255    0.839   .     S
O254   C286    1.312   .     S
O256   C286    1.232   .     S
O257   H258    0.840   .     S
O257   C290    1.354   .     S
O259   C290    1.212   .     S
C260   P222    1.813   1_556 S
C260   C261    1.397   .     S
C260   C269    1.387   1_556 S
C261   H262    0.948   .     S
C261   C263    1.403   .     S
C263   C265    1.396   .     S
C263   C264    1.494   .     S
C265   H266    0.950   .     S
C265   C267    1.387   .     S
C267   C268    1.479   .     S
C267   C269    1.405   1_556 S
C268   O238    1.328   1_556 S
C269   C260    1.387   1_554 S
C269   H270    0.950   .     S
C269   C267    1.405   1_554 S
C271   C272    1.390   .     S
C271   C280    1.389   .     S
C272   H273    0.951   .     S
C272   C274    1.371   .     S
C274   C276    1.381   .     S
C274   C275    1.547   .     S
C276   H277    0.950   .     S
C276   C278    1.449   .     S
C278   C279    1.503   .     S
C278   C280    1.360   .     S
C280   H281    0.950   .     S
C282   C283    1.389   .     S
C282   C291    1.390   .     S
C283   H284    0.950   .     S
C283   C285    1.394   .     S
C285   C287    1.393   .     S
C285   C286    1.500   .     S
C287   H288    0.951   .     S
C287   C289    1.404   .     S
C289   C290    1.467   1_545 S
C289   C291    1.401   .     S
C290   C289    1.467   1_565 S
C291   H292    0.950   1_545 S
H292   C291    0.950   1_565 S
