data_RUFMUA01_FSR
_audit_creation_date              2024-06-11
_audit_creation_method            'Materials Studio'
_symmetry_space_group_name_H-M    'P1'
_symmetry_Int_Tables_number       1
_symmetry_cell_setting            triclinic
loop_
_symmetry_equiv_pos_as_xyz
  x,y,z
_cell_length_a                    6.8656
_cell_length_b                    9.1287
_cell_length_c                    9.9209
_cell_angle_alpha                 101.3410
_cell_angle_beta                  99.6830
_cell_angle_gamma                 111.9500
loop_
_atom_site_label
_atom_site_type_symbol
_atom_site_fract_x
_atom_site_fract_y
_atom_site_fract_z
_atom_site_U_iso_or_equiv
_atom_site_adp_type
_atom_site_occupancy
Ca1    Ca    0.31318   0.57803   0.10836   0.00000  Uiso   1.00
O2     O     0.32360   0.54708   0.35115   0.00000  Uiso   1.00
O3     O     0.02160   0.39730   0.87920   0.00000  Uiso   1.00
O4     O     0.58180   0.84635   0.49765   0.00000  Uiso   1.00
H5     H     0.49190   0.75080   0.46030   0.00000  Uiso   1.00
O6     O     0.35780   0.45900   0.86646   0.00000  Uiso   1.00
O7     O     0.56180   0.84825   0.27104   0.00000  Uiso   1.00
O8     O     0.11110   0.32710   0.17544   0.00000  Uiso   1.00
C9     C     0.08330   0.31750   0.40980   0.00000  Uiso   1.00
C10    C     0.07320   0.31470   0.65120   0.00000  Uiso   1.00
C11    C     0.91260   0.16220   0.36070   0.00000  Uiso   1.00
H12    H     0.85870   0.11030   0.26330   0.00000  Uiso   1.00
C13    C     0.64250   0.91530   0.39840   0.00000  Uiso   1.00
C14    C     0.89990   0.16050   0.60090   0.00000  Uiso   1.00
H15    H     0.83620   0.10880   0.66430   0.00000  Uiso   1.00
C16    C     0.17800   0.40200   0.30580   0.00000  Uiso   1.00
C17    C     0.15610   0.39520   0.80880   0.00000  Uiso   1.00
C18    C     0.16600   0.39290   0.55620   0.00000  Uiso   1.00
H19    H     0.28350   0.49580   0.59040   0.00000  Uiso   1.00
C20    C     0.82150   0.08340   0.45490   0.00000  Uiso   1.00
O21    O     0.31780   0.78950   0.98630   0.00000  Uiso   1.00
H22    H     0.18980   0.76110   0.93020   0.00000  Uiso   1.00
H23    H     0.35410   0.88320   0.04860   0.00000  Uiso   1.00
Ca24   Ca    0.68682   0.42197   0.89164   0.00000  Uiso   1.00
O25    O     0.67640   0.45292   0.64885   0.00000  Uiso   1.00
O26    O     0.97840   0.60270   0.12080   0.00000  Uiso   1.00
O27    O     0.41820   0.15365   0.50235   0.00000  Uiso   1.00
H28    H     0.50810   0.24920   0.53970   0.00000  Uiso   1.00
O29    O     0.64220   0.54100   0.13354   0.00000  Uiso   1.00
O30    O     0.43820   0.15175   0.72896   0.00000  Uiso   1.00
O31    O     0.88890   0.67290   0.82456   0.00000  Uiso   1.00
C32    C     0.91670   0.68250   0.59020   0.00000  Uiso   1.00
C33    C     0.92680   0.68530   0.34880   0.00000  Uiso   1.00
C34    C     0.08740   0.83780   0.63930   0.00000  Uiso   1.00
H35    H     0.14130   0.88970   0.73670   0.00000  Uiso   1.00
C36    C     0.35750   0.08470   0.60160   0.00000  Uiso   1.00
C37    C     0.10010   0.83950   0.39910   0.00000  Uiso   1.00
H38    H     0.16380   0.89120   0.33570   0.00000  Uiso   1.00
C39    C     0.82200   0.59800   0.69420   0.00000  Uiso   1.00
C40    C     0.84390   0.60480   0.19120   0.00000  Uiso   1.00
C41    C     0.83400   0.60710   0.44380   0.00000  Uiso   1.00
H42    H     0.71650   0.50420   0.40960   0.00000  Uiso   1.00
C43    C     0.17850   0.91660   0.54510   0.00000  Uiso   1.00
O44    O     0.68220   0.21050   0.01370   0.00000  Uiso   1.00
H45    H     0.81020   0.23890   0.06980   0.00000  Uiso   1.00
H46    H     0.64590   0.11680   0.95140   0.00000  Uiso   1.00
loop_
_geom_bond_atom_site_label_1
_geom_bond_atom_site_label_2
_geom_bond_distance
_geom_bond_site_symmetry_2
_ccdc_geom_bond_type
Ca1    O3      2.534   1_554 S
Ca1    O6      2.550   1_554 S
Ca1    O21     2.466   1_554 S
Ca1    O2      2.472   .     S
Ca1    O26     2.413   1_455 S
Ca1    O29     2.386   .     S
Ca1    O7      2.442   .     S
Ca1    O8      2.480   .     S
O2     C16     1.257   .     S
O3     Ca1     2.534   1_556 S
O3     C17     1.251   .     S
O3     Ca24    2.413   1_455 S
O4     H5      0.820   .     S
O4     C13     1.313   .     S
O6     Ca1     2.550   1_556 S
O6     C17     1.258   .     S
O6     Ca24    2.386   .     S
O7     C13     1.219   .     S
O8     C16     1.252   .     S
C9     C11     1.384   1_455 S
C9     C16     1.499   .     S
C9     C18     1.394   .     S
C10    C14     1.385   1_455 S
C10    C17     1.498   .     S
C10    C18     1.389   .     S
C11    C9      1.384   1_655 S
C11    H12     0.929   .     S
C11    C20     1.381   .     S
C13    C20     1.483   1_565 S
C14    C10     1.385   1_655 S
C14    H15     0.930   .     S
C14    C20     1.392   .     S
C18    H19     0.930   .     S
C20    C13     1.483   1_545 S
O21    Ca1     2.466   1_556 S
O21    H22     0.870   .     S
O21    H23     0.870   1_556 S
H23    O21     0.870   1_554 S
Ca24   O26     2.534   1_556 S
Ca24   O29     2.550   1_556 S
Ca24   O44     2.466   1_556 S
Ca24   O25     2.472   .     S
Ca24   O3      2.413   1_655 S
Ca24   O30     2.442   .     S
Ca24   O31     2.480   .     S
O25    C39     1.257   .     S
O26    Ca24    2.534   1_554 S
O26    C40     1.251   .     S
O26    Ca1     2.413   1_655 S
O27    H28     0.820   .     S
O27    C36     1.313   .     S
O29    Ca24    2.550   1_554 S
O29    C40     1.258   .     S
O30    C36     1.219   .     S
O31    C39     1.252   .     S
C32    C34     1.384   1_655 S
C32    C39     1.499   .     S
C32    C41     1.394   .     S
C33    C37     1.385   1_655 S
C33    C40     1.498   .     S
C33    C41     1.389   .     S
C34    C32     1.384   1_455 S
C34    H35     0.929   .     S
C34    C43     1.381   .     S
C36    C43     1.483   1_545 S
C37    C33     1.385   1_455 S
C37    H38     0.930   .     S
C37    C43     1.392   .     S
C41    H42     0.930   .     S
C43    C36     1.483   1_565 S
O44    Ca24    2.466   1_554 S
O44    H45     0.870   .     S
O44    H46     0.870   1_554 S
H46    O44     0.870   1_556 S
