data_SAXZIA01_directopt
_audit_creation_date              2024-06-11
_audit_creation_method            'Materials Studio'
_symmetry_space_group_name_H-M    'P1'
_symmetry_Int_Tables_number       1
_symmetry_cell_setting            triclinic
loop_
_symmetry_equiv_pos_as_xyz
  x,y,z
_cell_length_a                    6.8692
_cell_length_b                    5.9053
_cell_length_c                    9.6318
_cell_angle_alpha                 90.0000
_cell_angle_beta                  91.6220
_cell_angle_gamma                 90.0000
loop_
_atom_site_label
_atom_site_type_symbol
_atom_site_fract_x
_atom_site_fract_y
_atom_site_fract_z
_atom_site_U_iso_or_equiv
_atom_site_adp_type
_atom_site_occupancy
C1     C     0.47738   0.30288   0.92850   0.00000  Uiso   1.00
H2     H     0.45414   0.15865   0.87064   0.00000  Uiso   1.00
O3     O     0.30241   0.32052   0.65561   0.00000  Uiso   1.00
C4     C     0.97738   0.80288   0.92850   0.00000  Uiso   1.00
H5     H     0.95414   0.65865   0.87064   0.00000  Uiso   1.00
O6     O     0.80241   0.82052   0.65561   0.00000  Uiso   1.00
C7     C     0.52262   0.30288   0.07150   0.00000  Uiso   1.00
H8     H     0.54586   0.15865   0.12936   0.00000  Uiso   1.00
O9     O     0.69759   0.32052   0.34439   0.00000  Uiso   1.00
C10    C     0.02262   0.80288   0.07150   0.00000  Uiso   1.00
H11    H     0.04586   0.65865   0.12936   0.00000  Uiso   1.00
O12    O     0.19759   0.82052   0.34439   0.00000  Uiso   1.00
C13    C     0.52262   0.69712   0.07150   0.00000  Uiso   1.00
H14    H     0.54586   0.84135   0.12936   0.00000  Uiso   1.00
O15    O     0.69759   0.67948   0.34439   0.00000  Uiso   1.00
C16    C     0.02262   0.19712   0.07150   0.00000  Uiso   1.00
H17    H     0.04586   0.34135   0.12936   0.00000  Uiso   1.00
O18    O     0.19759   0.17948   0.34439   0.00000  Uiso   1.00
C19    C     0.47738   0.69712   0.92850   0.00000  Uiso   1.00
H20    H     0.45414   0.84135   0.87064   0.00000  Uiso   1.00
O21    O     0.30241   0.67948   0.65561   0.00000  Uiso   1.00
C22    C     0.97738   0.19712   0.92850   0.00000  Uiso   1.00
H23    H     0.95414   0.34135   0.87064   0.00000  Uiso   1.00
O24    O     0.80241   0.17948   0.65561   0.00000  Uiso   1.00
Ba25   Ba   -0.00000   0.50000   0.50000   0.00000  Uiso   1.00
Ba26   Ba    0.50000   0.00000   0.50000   0.00000  Uiso   1.00
C27    C     0.36719   0.50000   0.71135   0.00000  Uiso   1.00
C28    C     0.45396   0.50000   0.85477   0.00000  Uiso   1.00
C29    C     0.86719  -0.00000   0.71135   0.00000  Uiso   1.00
C30    C     0.95396  -0.00000   0.85477   0.00000  Uiso   1.00
C31    C     0.63281   0.50000   0.28865   0.00000  Uiso   1.00
C32    C     0.54604   0.50000   0.14523   0.00000  Uiso   1.00
C33    C     0.13281  -0.00000   0.28865   0.00000  Uiso   1.00
C34    C     0.04604  -0.00000   0.14523   0.00000  Uiso   1.00
loop_
_geom_bond_atom_site_label_1
_geom_bond_atom_site_label_2
_geom_bond_distance
_geom_bond_site_symmetry_2
_ccdc_geom_bond_type
C1     C28     1.371   .     A
C1     H2      1.028   .     S
C1     C7      1.403   1_556 A
O3     Ba25    2.740   .     S
O3     C27     1.263   .     A
O3     Ba26    2.790   .     S
C4     C30     1.371   1_565 A
C4     H5      1.028   .     S
C4     C10     1.403   1_656 A
O6     Ba26    2.740   1_565 S
O6     C29     1.263   1_565 A
O6     Ba25    2.790   1_655 S
C7     C32     1.371   .     A
C7     H8      1.028   .     S
C7     C1      1.403   1_554 A
O9     Ba25    2.740   1_655 S
O9     C31     1.263   .     A
O9     Ba26    2.790   .     S
C10    C34     1.371   1_565 A
C10    H11     1.028   .     S
C10    C4      1.403   1_454 A
O12    Ba26    2.740   1_565 S
O12    C33     1.263   1_565 A
O12    Ba25    2.790   .     S
C13    C32     1.371   .     A
C13    H14     1.028   .     S
C13    C19     1.403   1_554 A
O15    Ba25    2.740   1_655 S
O15    C31     1.263   .     A
O15    Ba26    2.790   1_565 S
C16    C34     1.371   .     A
C16    H17     1.028   .     S
C16    C22     1.403   1_454 A
O18    Ba26    2.740   .     S
O18    C33     1.263   .     A
O18    Ba25    2.790   .     S
C19    C28     1.371   .     A
C19    H20     1.028   .     S
C19    C13     1.403   1_556 A
O21    Ba25    2.740   .     S
O21    C27     1.263   .     A
O21    Ba26    2.790   1_565 S
C22    C30     1.371   .     A
C22    H23     1.028   .     S
C22    C16     1.403   1_656 A
O24    Ba26    2.740   .     S
O24    C29     1.263   .     A
O24    Ba25    2.790   1_655 S
Ba25   O9      2.740   1_455 S
Ba25   O15     2.740   1_455 S
Ba25   O6      2.790   1_455 S
Ba25   O24     2.790   1_455 S
Ba26   O6      2.740   1_545 S
Ba26   O12     2.740   1_545 S
Ba26   O21     2.790   1_545 S
Ba26   O15     2.790   1_545 S
C27    C28     1.489   .     S
C29    O6      1.263   1_545 A
C29    C30     1.489   .     S
C30    C4      1.371   1_545 A
C31    C32     1.489   .     S
C33    O12     1.263   1_545 A
C33    C34     1.489   .     S
C34    C10     1.371   1_545 A
