data_SAYYIE_FSR
_audit_creation_date              2024-06-11
_audit_creation_method            'Materials Studio'
_symmetry_space_group_name_H-M    'P1'
_symmetry_Int_Tables_number       1
_symmetry_cell_setting            triclinic
loop_
_symmetry_equiv_pos_as_xyz
  x,y,z
_cell_length_a                    7.9794
_cell_length_b                    11.6275
_cell_length_c                    15.6955
_cell_angle_alpha                 90.0000
_cell_angle_beta                  95.6760
_cell_angle_gamma                 90.0000
loop_
_atom_site_label
_atom_site_type_symbol
_atom_site_fract_x
_atom_site_fract_y
_atom_site_fract_z
_atom_site_U_iso_or_equiv
_atom_site_adp_type
_atom_site_occupancy
C1     C     0.99460   0.85990   0.61950   0.00000  Uiso   1.00
C2     C     0.93770   0.73900   0.60870   0.00000  Uiso   1.00
C3     C     0.96830   0.64490   0.66320   0.00000  Uiso   1.00
C4     C     0.06240   0.63320   0.74820   0.00000  Uiso   1.00
C5     C     0.82020   0.59260   0.54390   0.00000  Uiso   1.00
C6     C     0.72510   0.52080   0.47830   0.00000  Uiso   1.00
C7     C     0.74320   0.40280   0.47510   0.00000  Uiso   1.00
H8     H     0.81550   0.36620   0.51670   0.00000  Uiso   1.00
C9     C     0.65670   0.33780   0.41170   0.00000  Uiso   1.00
H10    H     0.67350   0.25880   0.40980   0.00000  Uiso   1.00
C11    C     0.54550   0.39030   0.35130   0.00000  Uiso   1.00
C12    C     0.51970   0.50980   0.35550   0.00000  Uiso   1.00
H13    H     0.44310   0.54600   0.31570   0.00000  Uiso   1.00
C14    C     0.60880   0.57290   0.41900   0.00000  Uiso   1.00
H15    H     0.59060   0.65180   0.42220   0.00000  Uiso   1.00
C16    C     0.34890   0.36810   0.21600   0.00000  Uiso   1.00
H17    H     0.31710   0.44450   0.20720   0.00000  Uiso   1.00
C18    C     0.29960   0.27810   0.16600   0.00000  Uiso   1.00
H19    H     0.22470   0.28230   0.11680   0.00000  Uiso   1.00
C20    C     0.46750   0.21090   0.26720   0.00000  Uiso   1.00
H21    H     0.53370   0.16050   0.30210   0.00000  Uiso   1.00
C22    C     0.46400   0.93850   0.50270   0.00000  Uiso   1.00
N23    N     0.84620   0.70500   0.53510   0.00000  Uiso   1.00
N24    N     0.89340   0.55400   0.62040   0.00000  Uiso   1.00
H25    H     0.89240   0.48420   0.63850   0.00000  Uiso   1.00
N26    N     0.45630   0.32510   0.28300   0.00000  Uiso   1.00
N27    N     0.37570   0.17900   0.19790   0.00000  Uiso   1.00
O28    O     0.07100   0.54160   0.78660   0.00000  Uiso   1.00
O29    O     0.13920   0.72380   0.78030   0.00000  Uiso   1.00
H30    H     0.09780   0.78140   0.75660   0.00000  Uiso   1.00
O31    O     0.09510   0.88620   0.68390   0.00000  Uiso   1.00
O32    O     0.94070   0.93220   0.56530   0.00000  Uiso   1.00
O33    O     0.32030   0.93240   0.53130   0.00000  Uiso   1.00
O34    O     0.54360   0.85780   0.47620   0.00000  Uiso   1.00
Pb35   Pb    0.80585   0.89753   0.42095   0.00000  Uiso   1.00
C36    C     0.50540   0.35990   0.88050   0.00000  Uiso   1.00
C37    C     0.56230   0.23900   0.89130   0.00000  Uiso   1.00
C38    C     0.53170   0.14490   0.83680   0.00000  Uiso   1.00
C39    C     0.43760   0.13320   0.75180   0.00000  Uiso   1.00
C40    C     0.67980   0.09260   0.95610   0.00000  Uiso   1.00
C41    C     0.77490   0.02080   0.02170   0.00000  Uiso   1.00
C42    C     0.75680   0.90280   0.02490   0.00000  Uiso   1.00
H43    H     0.68450   0.86620   0.98330   0.00000  Uiso   1.00
C44    C     0.84330   0.83780   0.08830   0.00000  Uiso   1.00
H45    H     0.82650   0.75880   0.09020   0.00000  Uiso   1.00
C46    C     0.95450   0.89030   0.14870   0.00000  Uiso   1.00
C47    C     0.98030   0.00980   0.14450   0.00000  Uiso   1.00
H48    H     0.05690   0.04600   0.18430   0.00000  Uiso   1.00
C49    C     0.89120   0.07290   0.08100   0.00000  Uiso   1.00
H50    H     0.90940   0.15180   0.07780   0.00000  Uiso   1.00
C51    C     0.15110   0.86810   0.28400   0.00000  Uiso   1.00
H52    H     0.18290   0.94450   0.29280   0.00000  Uiso   1.00
C53    C     0.20040   0.77810   0.33400   0.00000  Uiso   1.00
H54    H     0.27530   0.78230   0.38320   0.00000  Uiso   1.00
C55    C     0.03250   0.71090   0.23280   0.00000  Uiso   1.00
H56    H     0.96630   0.66050   0.19790   0.00000  Uiso   1.00
C57    C     0.03600   0.43850   0.99730   0.00000  Uiso   1.00
N58    N     0.65380   0.20500   0.96490   0.00000  Uiso   1.00
N59    N     0.60660   0.05400   0.87960   0.00000  Uiso   1.00
H60    H     0.60760   0.98420   0.86150   0.00000  Uiso   1.00
N61    N     0.04370   0.82510   0.21700   0.00000  Uiso   1.00
N62    N     0.12430   0.67900   0.30210   0.00000  Uiso   1.00
O63    O     0.42900   0.04160   0.71340   0.00000  Uiso   1.00
O64    O     0.36080   0.22380   0.71970   0.00000  Uiso   1.00
H65    H     0.40220   0.28140   0.74340   0.00000  Uiso   1.00
O66    O     0.40490   0.38620   0.81610   0.00000  Uiso   1.00
O67    O     0.55930   0.43220   0.93470   0.00000  Uiso   1.00
O68    O     0.17970   0.43240   0.96870   0.00000  Uiso   1.00
O69    O     0.95640   0.35780   0.02380   0.00000  Uiso   1.00
Pb70   Pb    0.69415   0.39753   0.07905   0.00000  Uiso   1.00
C71    C     0.00540   0.14010   0.38050   0.00000  Uiso   1.00
C72    C     0.06230   0.26100   0.39130   0.00000  Uiso   1.00
C73    C     0.03170   0.35510   0.33680   0.00000  Uiso   1.00
C74    C     0.93760   0.36680   0.25180   0.00000  Uiso   1.00
C75    C     0.17980   0.40740   0.45610   0.00000  Uiso   1.00
C76    C     0.27490   0.47920   0.52170   0.00000  Uiso   1.00
C77    C     0.25680   0.59720   0.52490   0.00000  Uiso   1.00
H78    H     0.18450   0.63380   0.48330   0.00000  Uiso   1.00
C79    C     0.34330   0.66220   0.58830   0.00000  Uiso   1.00
H80    H     0.32650   0.74120   0.59020   0.00000  Uiso   1.00
C81    C     0.45450   0.60970   0.64870   0.00000  Uiso   1.00
C82    C     0.48030   0.49020   0.64450   0.00000  Uiso   1.00
H83    H     0.55690   0.45400   0.68430   0.00000  Uiso   1.00
C84    C     0.39120   0.42710   0.58100   0.00000  Uiso   1.00
H85    H     0.40940   0.34820   0.57780   0.00000  Uiso   1.00
C86    C     0.65110   0.63190   0.78400   0.00000  Uiso   1.00
H87    H     0.68290   0.55550   0.79280   0.00000  Uiso   1.00
C88    C     0.70040   0.72190   0.83400   0.00000  Uiso   1.00
H89    H     0.77530   0.71770   0.88320   0.00000  Uiso   1.00
C90    C     0.53250   0.78910   0.73280   0.00000  Uiso   1.00
H91    H     0.46630   0.83950   0.69790   0.00000  Uiso   1.00
C92    C     0.53600   0.06150   0.49730   0.00000  Uiso   1.00
N93    N     0.15380   0.29500   0.46490   0.00000  Uiso   1.00
N94    N     0.10660   0.44600   0.37960   0.00000  Uiso   1.00
H95    H     0.10760   0.51580   0.36150   0.00000  Uiso   1.00
N96    N     0.54370   0.67490   0.71700   0.00000  Uiso   1.00
N97    N     0.62430   0.82100   0.80210   0.00000  Uiso   1.00
O98    O     0.92900   0.45840   0.21340   0.00000  Uiso   1.00
O99    O     0.86080   0.27620   0.21970   0.00000  Uiso   1.00
H100   H     0.90220   0.21860   0.24340   0.00000  Uiso   1.00
O101   O     0.90490   0.11380   0.31610   0.00000  Uiso   1.00
O102   O     0.05930   0.06780   0.43470   0.00000  Uiso   1.00
O103   O     0.67970   0.06760   0.46870   0.00000  Uiso   1.00
O104   O     0.45640   0.14220   0.52380   0.00000  Uiso   1.00
Pb105  Pb    0.19415   0.10247   0.57905   0.00000  Uiso   1.00
C106   C     0.49460   0.64010   0.11950   0.00000  Uiso   1.00
C107   C     0.43770   0.76100   0.10870   0.00000  Uiso   1.00
C108   C     0.46830   0.85510   0.16320   0.00000  Uiso   1.00
C109   C     0.56240   0.86680   0.24820   0.00000  Uiso   1.00
C110   C     0.32020   0.90740   0.04390   0.00000  Uiso   1.00
C111   C     0.22510   0.97920   0.97830   0.00000  Uiso   1.00
C112   C     0.24320   0.09720   0.97510   0.00000  Uiso   1.00
H113   H     0.31550   0.13380   0.01670   0.00000  Uiso   1.00
C114   C     0.15670   0.16220   0.91170   0.00000  Uiso   1.00
H115   H     0.17350   0.24120   0.90980   0.00000  Uiso   1.00
C116   C     0.04550   0.10970   0.85130   0.00000  Uiso   1.00
C117   C     0.01970   0.99020   0.85550   0.00000  Uiso   1.00
H118   H     0.94310   0.95400   0.81570   0.00000  Uiso   1.00
C119   C     0.10880   0.92710   0.91900   0.00000  Uiso   1.00
H120   H     0.09060   0.84820   0.92220   0.00000  Uiso   1.00
C121   C     0.84890   0.13190   0.71600   0.00000  Uiso   1.00
H122   H     0.81710   0.05550   0.70720   0.00000  Uiso   1.00
C123   C     0.79960   0.22190   0.66600   0.00000  Uiso   1.00
H124   H     0.72470   0.21770   0.61680   0.00000  Uiso   1.00
C125   C     0.96750   0.28910   0.76720   0.00000  Uiso   1.00
H126   H     0.03370   0.33950   0.80210   0.00000  Uiso   1.00
C127   C     0.96400   0.56150   0.00270   0.00000  Uiso   1.00
N128   N     0.34620   0.79500   0.03510   0.00000  Uiso   1.00
N129   N     0.39340   0.94600   0.12040   0.00000  Uiso   1.00
H130   H     0.39240   0.01580   0.13850   0.00000  Uiso   1.00
N131   N     0.95630   0.17490   0.78300   0.00000  Uiso   1.00
N132   N     0.87570   0.32100   0.69790   0.00000  Uiso   1.00
O133   O     0.57100   0.95840   0.28660   0.00000  Uiso   1.00
O134   O     0.63920   0.77620   0.28030   0.00000  Uiso   1.00
H135   H     0.59780   0.71860   0.25660   0.00000  Uiso   1.00
O136   O     0.59510   0.61380   0.18390   0.00000  Uiso   1.00
O137   O     0.44070   0.56780   0.06530   0.00000  Uiso   1.00
O138   O     0.82030   0.56760   0.03130   0.00000  Uiso   1.00
O139   O     0.04360   0.64220   0.97620   0.00000  Uiso   1.00
Pb140  Pb    0.30585   0.60247   0.92095   0.00000  Uiso   1.00
loop_
_geom_bond_atom_site_label_1
_geom_bond_atom_site_label_2
_geom_bond_distance
_geom_bond_site_symmetry_2
_ccdc_geom_bond_type
C1     C2      1.482   .     S
C1     O31     1.264   1_655 S
C1     O32     1.242   .     S
C2     C3      1.395   .     S
C2     N23     1.363   .     S
C3     C4      1.471   1_655 S
C3     N24     1.359   .     S
C4     C3      1.471   1_455 S
C4     O28     1.222   .     S
C4     O29     1.295   .     S
C5     C6      1.476   .     S
C5     N23     1.333   .     S
C5     N24     1.359   .     S
C6     C7      1.381   .     S
C6     C14     1.387   .     S
C7     H8      0.930   .     S
C7     C9      1.379   .     S
C9     H10     0.929   .     S
C9     C11     1.376   .     S
C11    C12     1.407   .     S
C11    N26     1.442   .     S
C12    H13     0.930   .     S
C12    C14     1.377   .     S
C14    H15     0.931   .     S
C16    H17     0.930   .     S
C16    C18     1.343   .     S
C16    N26     1.383   .     S
C18    H19     0.930   .     S
C18    N27     1.374   .     S
C20    H21     0.930   .     S
C20    N26     1.355   .     S
C20    N27     1.304   .     S
C22    O33     1.274   .     S
C22    O34     1.228   .     S
C22    C92     1.547   1_565 S
N23    Pb35    2.865   .     S
N24    H25     0.860   .     S
O28    Pb140   2.771   .     S
O29    H30     0.820   .     S
O29    Pb140   2.837   .     S
O31    C1      1.264   1_455 S
O32    Pb105   2.823   1_665 S
O32    Pb35    2.444   .     S
O33    Pb105   2.374   1_565 S
O34    Pb35    2.388   .     S
Pb35   O103    2.374   1_565 S
Pb35   O133    2.771   .     S
Pb35   O134    2.837   .     S
Pb35   O102    2.823   1_665 S
C36    C37     1.482   .     S
C36    O66     1.264   .     S
C36    O67     1.242   .     S
C37    C38     1.395   .     S
C37    N58     1.363   .     S
C38    C39     1.471   .     S
C38    N59     1.359   .     S
C39    O63     1.222   .     S
C39    O64     1.295   .     S
C40    C41     1.476   1_556 S
C40    N58     1.333   .     S
C40    N59     1.359   .     S
C41    C40     1.476   1_554 S
C41    C42     1.381   1_545 S
C41    C49     1.387   .     S
C42    C41     1.381   1_565 S
C42    H43     0.930   1_554 S
C42    C44     1.379   .     S
H43    C42     0.930   1_556 S
C44    H45     0.929   .     S
C44    C46     1.376   .     S
C46    C47     1.407   1_565 S
C46    N61     1.442   1_655 S
C47    C46     1.407   1_545 S
C47    H48     0.930   1_655 S
C47    C49     1.377   .     S
H48    C47     0.930   1_455 S
C49    H50     0.931   .     S
C51    H52     0.930   .     S
C51    C53     1.343   .     S
C51    N61     1.383   .     S
C53    H54     0.930   .     S
C53    N62     1.374   .     S
C55    H56     0.930   1_455 S
C55    N61     1.355   .     S
C55    N62     1.304   .     S
H56    C55     0.930   1_655 S
C57    O68     1.274   .     S
C57    O69     1.228   1_456 S
C57    C127    1.547   1_456 S
N58    Pb70    2.865   1_556 S
N59    H60     0.860   1_545 S
H60    N59     0.860   1_565 S
N61    C46     1.442   1_455 S
O63    Pb105   2.771   .     S
O64    H65     0.820   .     S
O64    Pb105   2.837   .     S
O67    Pb140   2.823   .     S
O67    Pb70    2.444   1_556 S
O68    Pb140   2.374   .     S
O69    C57     1.228   1_654 S
O69    Pb70    2.388   .     S
Pb70   N58     2.865   1_554 S
Pb70   O138    2.374   .     S
Pb70   O98     2.771   .     S
Pb70   O99     2.837   .     S
Pb70   O137    2.823   .     S
Pb70   O67     2.444   1_554 S
C71    C72     1.482   .     S
C71    O101    1.264   1_455 S
C71    O102    1.242   .     S
C72    C73     1.395   .     S
C72    N93     1.363   .     S
C73    C74     1.471   1_455 S
C73    N94     1.359   .     S
C74    C73     1.471   1_655 S
C74    O98     1.222   .     S
C74    O99     1.295   .     S
C75    C76     1.476   .     S
C75    N93     1.333   .     S
C75    N94     1.359   .     S
C76    C77     1.381   .     S
C76    C84     1.387   .     S
C77    H78     0.930   .     S
C77    C79     1.379   .     S
C79    H80     0.929   .     S
C79    C81     1.376   .     S
C81    C82     1.407   .     S
C81    N96     1.442   .     S
C82    H83     0.930   .     S
C82    C84     1.377   .     S
C84    H85     0.931   .     S
C86    H87     0.930   .     S
C86    C88     1.343   .     S
C86    N96     1.383   .     S
C88    H89     0.930   .     S
C88    N97     1.374   .     S
C90    H91     0.930   .     S
C90    N96     1.355   .     S
C90    N97     1.304   .     S
C92    O103    1.274   .     S
C92    O104    1.228   .     S
C92    C22     1.547   1_545 S
N93    Pb105   2.865   .     S
N94    H95     0.860   .     S
O99    H100    0.820   .     S
O101   C71     1.264   1_655 S
O102   Pb35    2.823   1_445 S
O102   Pb105   2.444   .     S
O103   Pb35    2.374   1_545 S
O104   Pb105   2.388   .     S
Pb105  O33     2.374   1_545 S
Pb105  O32     2.823   1_445 S
C106   C107    1.482   .     S
C106   O136    1.264   .     S
C106   O137    1.242   .     S
C107   C108    1.395   .     S
C107   N128    1.363   .     S
C108   C109    1.471   .     S
C108   N129    1.359   .     S
C109   O133    1.222   .     S
C109   O134    1.295   .     S
C110   C111    1.476   1_554 S
C110   N128    1.333   .     S
C110   N129    1.359   .     S
C111   C110    1.476   1_556 S
C111   C112    1.381   1_565 S
C111   C119    1.387   .     S
C112   C111    1.381   1_545 S
C112   H113    0.930   1_556 S
C112   C114    1.379   .     S
H113   C112    0.930   1_554 S
C114   H115    0.929   .     S
C114   C116    1.376   .     S
C116   C117    1.407   1_545 S
C116   N131    1.442   1_455 S
C117   C116    1.407   1_565 S
C117   H118    0.930   1_455 S
C117   C119    1.377   .     S
H118   C117    0.930   1_655 S
C119   H120    0.931   .     S
C121   H122    0.930   .     S
C121   C123    1.343   .     S
C121   N131    1.383   .     S
C123   H124    0.930   .     S
C123   N132    1.374   .     S
C125   H126    0.930   1_655 S
C125   N131    1.355   .     S
C125   N132    1.304   .     S
H126   C125    0.930   1_455 S
C127   O138    1.274   .     S
C127   O139    1.228   1_654 S
C127   C57     1.547   1_654 S
N128   Pb140   2.865   1_554 S
N129   H130    0.860   1_565 S
H130   N129    0.860   1_545 S
N131   C116    1.442   1_655 S
O134   H135    0.820   .     S
O137   Pb140   2.444   1_554 S
O139   C127    1.228   1_456 S
O139   Pb140   2.388   .     S
Pb140  N128    2.865   1_556 S
Pb140  O137    2.444   1_556 S
