data_SAZBAY_FSR
_audit_creation_date              2024-06-11
_audit_creation_method            'Materials Studio'
_symmetry_space_group_name_H-M    'P1'
_symmetry_Int_Tables_number       1
_symmetry_cell_setting            triclinic
loop_
_symmetry_equiv_pos_as_xyz
  x,y,z
_cell_length_a                    8.7220
_cell_length_b                    27.5302
_cell_length_c                    11.2194
_cell_angle_alpha                 90.0000
_cell_angle_beta                  107.2840
_cell_angle_gamma                 90.0000
loop_
_atom_site_label
_atom_site_type_symbol
_atom_site_fract_x
_atom_site_fract_y
_atom_site_fract_z
_atom_site_U_iso_or_equiv
_atom_site_adp_type
_atom_site_occupancy
Ca1    Ca    0.48428   0.49988   0.24585   0.01656  Uani   1.00
S2     S     0.80002   0.74928   0.19460   0.01764  Uani   1.00
O3     O     0.72960   0.54053   0.26840   0.02615  Uani   1.00
O4     O     0.37800   0.54239   0.05858   0.02085  Uani   1.00
O5     O     0.24660   0.45507   0.20842   0.02641  Uani   1.00
O6     O     0.41780   0.94312   0.87611   0.02128  Uani   1.00
C7     C     0.13540   0.42938   0.22230   0.02667  Uani   1.00
H8     H     0.09620   0.40490   0.16420   0.03200  Uiso   1.00
C9     C     0.51460   0.86621   0.14870   0.02082  Uani   1.00
H10    H     0.45320   0.88160   0.19250   0.02500  Uiso   1.00
C11    C     0.72650   0.67174   0.03470   0.01968  Uani   1.00
H12    H     0.80950   0.68220   0.00460   0.02400  Uiso   1.00
C13    C     0.47910   0.64026   0.12650   0.02032  Uani   1.00
H14    H     0.39790   0.62930   0.15800   0.02400  Uiso   1.00
C15    C     0.59520   0.82351   0.19450   0.02002  Uani   1.00
H16    H     0.58650   0.80980   0.26800   0.02400  Uiso   1.00
C17    C     0.55940   0.68295   0.17100   0.02106  Uani   1.00
H18    H     0.53000   0.70140   0.23010   0.02500  Uiso   1.00
C19    C     0.70120   0.82068   0.01800   0.02257  Uani   1.00
H20    H     0.76370   0.80540   0.97490   0.02700  Uiso   1.00
O21    O     0.42501   0.55507   0.87584   0.02065  Uani   1.00
C22    C     0.64220   0.62972   0.98890   0.01943  Uani   1.00
H23    H     0.66790   0.61210   0.92670   0.02300  Uiso   1.00
N24    N     0.93670   0.56598   0.20132   0.02288  Uani   1.00
C25    C     0.80990   0.53870   0.19330   0.02324  Uani   1.00
H26    H     0.77840   0.51670   0.12750   0.02800  Uiso   1.00
C27    C     0.52540   0.88612   0.03720   0.01731  Uani   1.00
C28    C     1.02660   0.56227   0.11130   0.03664  Uani   1.00
H29    H     0.97720   0.53850   0.04920   0.05500  Uiso   1.00
H30    H     1.13500   0.55260   0.15340   0.05500  Uiso   1.00
H31    H     1.02710   0.59320   0.07200   0.05500  Uiso   1.00
N32    N     0.06920   0.43424   0.31309   0.02380  Uani   1.00
C33    C     0.99140   0.60178   0.29880   0.03711  Uani   1.00
H34    H     0.91980   0.60240   0.34930   0.05600  Uiso   1.00
H35    H     0.99320   0.63320   0.26210   0.05600  Uiso   1.00
H36    H     1.09750   0.59350   0.34990   0.05600  Uiso   1.00
C37    C     0.51960   0.61350   0.03460   0.01693  Uani   1.00
C38    C     0.43340   0.56639   0.98570   0.01730  Uani   1.00
C39    C     0.61830   0.86304   0.97230   0.02141  Uani   1.00
H40    H     0.62490   0.87620   0.89760   0.02600  Uiso   1.00
C41    C     0.12450   0.47137   0.40850   0.03423  Uani   1.00
H42    H     0.20770   0.49020   0.39080   0.05100  Uiso   1.00
H43    H     0.16580   0.45620   0.48870   0.05100  Uiso   1.00
H44    H     0.03640   0.49220   0.40900   0.05100  Uiso   1.00
C45    C    -0.05870   0.40264   0.32360   0.04193  Uani   1.00
H46    H    -0.08450   0.37980   0.25580   0.06300  Uiso   1.00
H47    H    -0.15190   0.42170   0.32060   0.06300  Uiso   1.00
H48    H    -0.02460   0.38540   0.40140   0.06300  Uiso   1.00
O49    O     0.39950   0.95893   0.06741   0.02285  Uani   1.00
C50    C     0.68890   0.80151   0.12940   0.01842  Uani   1.00
C51    C     0.68510   0.69799   0.12630   0.01714  Uani   1.00
O52    O     0.94514   0.74898   0.15836   0.02347  Uani   1.00
O53    O     0.81140   0.74874   0.32532   0.02278  Uani   1.00
C54    C     0.44060   0.93341   0.98960   0.01736  Uani   1.00
Ca55   Ca    0.51572   0.99988   0.25415   0.01656  Uani   1.00
S56    S     0.19998   0.24928   0.30540   0.01764  Uani   1.00
O57    O     0.27040   0.04053   0.23160   0.02615  Uani   1.00
O58    O     0.62200   0.04239   0.44142   0.02085  Uani   1.00
O59    O     0.75340   0.95507   0.29158   0.02641  Uani   1.00
O60    O     0.58220   0.44312   0.62389   0.02128  Uani   1.00
C61    C     0.86460   0.92938   0.27770   0.02667  Uani   1.00
H62    H     0.90380   0.90490   0.33580   0.03200  Uiso   1.00
C63    C     0.48540   0.36621   0.35130   0.02082  Uani   1.00
H64    H     0.54680   0.38160   0.30750   0.02500  Uiso   1.00
C65    C     0.27350   0.17174   0.46530   0.01968  Uani   1.00
H66    H     0.19050   0.18220   0.49540   0.02400  Uiso   1.00
C67    C     0.52090   0.14026   0.37350   0.02032  Uani   1.00
H68    H     0.60210   0.12930   0.34200   0.02400  Uiso   1.00
C69    C     0.40480   0.32351   0.30550   0.02002  Uani   1.00
H70    H     0.41350   0.30980   0.23200   0.02400  Uiso   1.00
C71    C     0.44060   0.18295   0.32900   0.02106  Uani   1.00
H72    H     0.47000   0.20140   0.26990   0.02500  Uiso   1.00
C73    C     0.29880   0.32068   0.48200   0.02257  Uani   1.00
H74    H     0.23630   0.30540   0.52510   0.02700  Uiso   1.00
O75    O     0.57499   0.05507   0.62416   0.02065  Uani   1.00
C76    C     0.35780   0.12972   0.51110   0.01943  Uani   1.00
H77    H     0.33210   0.11210   0.57330   0.02300  Uiso   1.00
N78    N     0.06330   0.06598   0.29868   0.02288  Uani   1.00
C79    C     0.19010   0.03870   0.30670   0.02324  Uani   1.00
H80    H     0.22160   0.01670   0.37250   0.02800  Uiso   1.00
C81    C     0.47460   0.38612   0.46280   0.01731  Uani   1.00
C82    C    -0.02660   0.06227   0.38870   0.03664  Uani   1.00
H83    H     0.02280   0.03850   0.45080   0.05500  Uiso   1.00
H84    H    -0.13500   0.05260   0.34660   0.05500  Uiso   1.00
H85    H    -0.02710   0.09320   0.42800   0.05500  Uiso   1.00
N86    N     0.93080   0.93424   0.18691   0.02380  Uani   1.00
C87    C     0.00860   0.10178   0.20120   0.03711  Uani   1.00
H88    H     0.08020   0.10240   0.15070   0.05600  Uiso   1.00
H89    H     0.00680   0.13320   0.23790   0.05600  Uiso   1.00
H90    H    -0.09750   0.09350   0.15010   0.05600  Uiso   1.00
C91    C     0.48040   0.11350   0.46540   0.01693  Uani   1.00
C92    C     0.56660   0.06639   0.51430   0.01730  Uani   1.00
C93    C     0.38170   0.36304   0.52770   0.02141  Uani   1.00
H94    H     0.37510   0.37620   0.60240   0.02600  Uiso   1.00
C95    C     0.87550   0.97137   0.09150   0.03423  Uani   1.00
H96    H     0.79230   0.99020   0.10920   0.05100  Uiso   1.00
H97    H     0.83420   0.95620   0.01130   0.05100  Uiso   1.00
H98    H     0.96360   0.99220   0.09100   0.05100  Uiso   1.00
C99    C     1.05870   0.90264   0.17640   0.04193  Uani   1.00
H100   H     1.08450   0.87980   0.24420   0.06300  Uiso   1.00
H101   H     1.15190   0.92170   0.17940   0.06300  Uiso   1.00
H102   H     1.02460   0.88540   0.09860   0.06300  Uiso   1.00
O103   O     0.60050   0.45893   0.43259   0.02285  Uani   1.00
C104   C     0.31110   0.30151   0.37060   0.01842  Uani   1.00
C105   C     0.31490   0.19799   0.37370   0.01714  Uani   1.00
O106   O     0.05486   0.24898   0.34164   0.02347  Uani   1.00
O107   O     0.18860   0.24874   0.17468   0.02278  Uani   1.00
C108   C     0.55940   0.43341   0.51040   0.01736  Uani   1.00
Ca109  Ca    0.51572   0.50012   0.75415   0.01656  Uani   1.00
S110   S     0.19998   0.25072   0.80540   0.01764  Uani   1.00
O111   O     0.27040   0.45947   0.73160   0.02615  Uani   1.00
O112   O     0.62200   0.45761   0.94142   0.02085  Uani   1.00
O113   O     0.75340   0.54493   0.79158   0.02641  Uani   1.00
O114   O     0.58220   0.05688   0.12389   0.02128  Uani   1.00
C115   C     0.86460   0.57062   0.77770   0.02667  Uani   1.00
H116   H     0.90380   0.59510   0.83580   0.03200  Uiso   1.00
C117   C     0.48540   0.13379   0.85130   0.02082  Uani   1.00
H118   H     0.54680   0.11840   0.80750   0.02500  Uiso   1.00
C119   C     0.27350   0.32826   0.96530   0.01968  Uani   1.00
H120   H     0.19050   0.31780   0.99540   0.02400  Uiso   1.00
C121   C     0.52090   0.35974   0.87350   0.02032  Uani   1.00
H122   H     0.60210   0.37070   0.84200   0.02400  Uiso   1.00
C123   C     0.40480   0.17649   0.80550   0.02002  Uani   1.00
H124   H     0.41350   0.19020   0.73200   0.02400  Uiso   1.00
C125   C     0.44060   0.31705   0.82900   0.02106  Uani   1.00
H126   H     0.47000   0.29860   0.76990   0.02500  Uiso   1.00
C127   C     0.29880   0.17932   0.98200   0.02257  Uani   1.00
H128   H     0.23630   0.19460   0.02510   0.02700  Uiso   1.00
O129   O     0.57499   0.44493   0.12416   0.02065  Uani   1.00
C130   C     0.35780   0.37028   0.01110   0.01943  Uani   1.00
H131   H     0.33210   0.38790   0.07330   0.02300  Uiso   1.00
N132   N     0.06330   0.43402   0.79868   0.02288  Uani   1.00
C133   C     0.19010   0.46130   0.80670   0.02324  Uani   1.00
H134   H     0.22160   0.48330   0.87250   0.02800  Uiso   1.00
C135   C     0.47460   0.11388   0.96280   0.01731  Uani   1.00
C136   C    -0.02660   0.43773   0.88870   0.03664  Uani   1.00
H137   H     0.02280   0.46150   0.95080   0.05500  Uiso   1.00
H138   H    -0.13500   0.44740   0.84660   0.05500  Uiso   1.00
H139   H    -0.02710   0.40680   0.92800   0.05500  Uiso   1.00
N140   N     0.93080   0.56576   0.68691   0.02380  Uani   1.00
C141   C     0.00860   0.39822   0.70120   0.03711  Uani   1.00
H142   H     0.08020   0.39760   0.65070   0.05600  Uiso   1.00
H143   H     0.00680   0.36680   0.73790   0.05600  Uiso   1.00
H144   H    -0.09750   0.40650   0.65010   0.05600  Uiso   1.00
C145   C     0.48040   0.38650   0.96540   0.01693  Uani   1.00
C146   C     0.56660   0.43361   0.01430   0.01730  Uani   1.00
C147   C     0.38170   0.13696   0.02770   0.02141  Uani   1.00
H148   H     0.37510   0.12380   0.10240   0.02600  Uiso   1.00
C149   C     0.87550   0.52863   0.59150   0.03423  Uani   1.00
H150   H     0.79230   0.50980   0.60920   0.05100  Uiso   1.00
H151   H     0.83420   0.54380   0.51130   0.05100  Uiso   1.00
H152   H     0.96360   0.50780   0.59100   0.05100  Uiso   1.00
C153   C     1.05870   0.59736   0.67640   0.04193  Uani   1.00
H154   H     1.08450   0.62020   0.74420   0.06300  Uiso   1.00
H155   H     1.15190   0.57830   0.67940   0.06300  Uiso   1.00
H156   H     1.02460   0.61460   0.59860   0.06300  Uiso   1.00
O157   O     0.60050   0.04107   0.93259   0.02285  Uani   1.00
C158   C     0.31110   0.19849   0.87060   0.01842  Uani   1.00
C159   C     0.31490   0.30201   0.87370   0.01714  Uani   1.00
O160   O     0.05486   0.25102   0.84164   0.02347  Uani   1.00
O161   O     0.18860   0.25126   0.67468   0.02278  Uani   1.00
C162   C     0.55940   0.06659   0.01040   0.01736  Uani   1.00
Ca163  Ca    0.48428   0.00012   0.74585   0.01656  Uani   1.00
S164   S     0.80002   0.75072   0.69460   0.01764  Uani   1.00
O165   O     0.72960   0.95947   0.76840   0.02615  Uani   1.00
O166   O     0.37800   0.95761   0.55858   0.02085  Uani   1.00
O167   O     0.24660   0.04493   0.70842   0.02641  Uani   1.00
O168   O     0.41780   0.55688   0.37611   0.02128  Uani   1.00
C169   C     0.13540   0.07062   0.72230   0.02667  Uani   1.00
H170   H     0.09620   0.09510   0.66420   0.03200  Uiso   1.00
C171   C     0.51460   0.63379   0.64870   0.02082  Uani   1.00
H172   H     0.45320   0.61840   0.69250   0.02500  Uiso   1.00
C173   C     0.72650   0.82826   0.53470   0.01968  Uani   1.00
H174   H     0.80950   0.81780   0.50460   0.02400  Uiso   1.00
C175   C     0.47910   0.85974   0.62650   0.02032  Uani   1.00
H176   H     0.39790   0.87070   0.65800   0.02400  Uiso   1.00
C177   C     0.59520   0.67649   0.69450   0.02002  Uani   1.00
H178   H     0.58650   0.69020   0.76800   0.02400  Uiso   1.00
C179   C     0.55940   0.81705   0.67100   0.02106  Uani   1.00
H180   H     0.53000   0.79860   0.73010   0.02500  Uiso   1.00
C181   C     0.70120   0.67932   0.51800   0.02257  Uani   1.00
H182   H     0.76370   0.69460   0.47490   0.02700  Uiso   1.00
O183   O     0.42501   0.94493   0.37584   0.02065  Uani   1.00
C184   C     0.64220   0.87028   0.48890   0.01943  Uani   1.00
H185   H     0.66790   0.88790   0.42670   0.02300  Uiso   1.00
N186   N     0.93670   0.93402   0.70132   0.02288  Uani   1.00
C187   C     0.80990   0.96130   0.69330   0.02324  Uani   1.00
H188   H     0.77840   0.98330   0.62750   0.02800  Uiso   1.00
C189   C     0.52540   0.61388   0.53720   0.01731  Uani   1.00
C190   C     1.02660   0.93773   0.61130   0.03664  Uani   1.00
H191   H     0.97720   0.96150   0.54920   0.05500  Uiso   1.00
H192   H     1.13500   0.94740   0.65340   0.05500  Uiso   1.00
H193   H     1.02710   0.90680   0.57200   0.05500  Uiso   1.00
N194   N     0.06920   0.06576   0.81309   0.02380  Uani   1.00
C195   C     0.99140   0.89822   0.79880   0.03711  Uani   1.00
H196   H     0.91980   0.89760   0.84930   0.05600  Uiso   1.00
H197   H     0.99320   0.86680   0.76210   0.05600  Uiso   1.00
H198   H     1.09750   0.90650   0.84990   0.05600  Uiso   1.00
C199   C     0.51960   0.88650   0.53460   0.01693  Uani   1.00
C200   C     0.43340   0.93361   0.48570   0.01730  Uani   1.00
C201   C     0.61830   0.63696   0.47230   0.02141  Uani   1.00
H202   H     0.62490   0.62380   0.39760   0.02600  Uiso   1.00
C203   C     0.12450   0.02863   0.90850   0.03423  Uani   1.00
H204   H     0.20770   0.00980   0.89080   0.05100  Uiso   1.00
H205   H     0.16580   0.04380   0.98870   0.05100  Uiso   1.00
H206   H     0.03640   0.00780   0.90900   0.05100  Uiso   1.00
C207   C    -0.05870   0.09736   0.82360   0.04193  Uani   1.00
H208   H    -0.08450   0.12020   0.75580   0.06300  Uiso   1.00
H209   H    -0.15190   0.07830   0.82060   0.06300  Uiso   1.00
H210   H    -0.02460   0.11460   0.90140   0.06300  Uiso   1.00
O211   O     0.39950   0.54107   0.56741   0.02285  Uani   1.00
C212   C     0.68890   0.69849   0.62940   0.01842  Uani   1.00
C213   C     0.68510   0.80201   0.62630   0.01714  Uani   1.00
O214   O     0.94514   0.75102   0.65836   0.02347  Uani   1.00
O215   O     0.81140   0.75126   0.82532   0.02278  Uani   1.00
C216   C     0.44060   0.56659   0.48960   0.01736  Uani   1.00
loop_
_atom_site_aniso_label
_atom_site_aniso_U_11
_atom_site_aniso_U_22
_atom_site_aniso_U_33
_atom_site_aniso_U_12
_atom_site_aniso_U_13
_atom_site_aniso_U_23
Ca1       0.02350   0.01580   0.01250  -0.00320   0.00861  -0.00127
S2        0.02130   0.01590   0.01560  -0.00040   0.00530  -0.00010
O3        0.02470   0.03190   0.02380  -0.00840   0.01020  -0.00150
O4        0.02600   0.02090   0.01720  -0.00420   0.00880   0.00200
O5        0.02730   0.02560   0.03020  -0.00610   0.01450  -0.00110
O6        0.03130   0.01870   0.01490  -0.00010   0.00850   0.00330
C7        0.02960   0.02600   0.02440  -0.00550   0.00800  -0.00450
C9        0.02830   0.01830   0.01940   0.00030   0.01250  -0.00130
C11       0.02300   0.01920   0.01920  -0.00150   0.00990  -0.00030
C13       0.02320   0.02070   0.02040  -0.00110   0.01160  -0.00050
C15       0.02890   0.01840   0.01580  -0.00110   0.01130   0.00150
C17       0.02430   0.02250   0.01880   0.00080   0.01010  -0.00330
C19       0.02990   0.02080   0.02060   0.00140   0.01300  -0.00320
O21       0.02810   0.02020   0.01590  -0.00330   0.01000  -0.00460
C22       0.02670   0.01970   0.01360   0.00050   0.00860  -0.00160
N24       0.02170   0.02400   0.02400  -0.00190   0.00840   0.00340
C25       0.02720   0.02150   0.01980  -0.00140   0.00510   0.00140
C27       0.02220   0.01460   0.01540  -0.00250   0.00600  -0.00110
C28       0.03720   0.03750   0.04440   0.00270   0.02620   0.00660
N32       0.02180   0.02930   0.02200  -0.00290   0.00910   0.00000
C33       0.03660   0.03740   0.03670  -0.01210   0.00990  -0.00590
C37       0.02220   0.01630   0.01270   0.00260   0.00580   0.00220
C38       0.01780   0.01570   0.01800   0.00290   0.00470   0.00130
C39       0.03190   0.02070   0.01450  -0.00030   0.01130   0.00090
C41       0.04710   0.03390   0.02590  -0.00270   0.01730  -0.00560
C45       0.03550   0.05600   0.03830  -0.01760   0.01710  -0.00030
O49       0.03200   0.02000   0.01790   0.00270   0.00950  -0.00170
C50       0.02500   0.01390   0.01700  -0.00050   0.00720  -0.00170
C51       0.02080   0.01530   0.01450   0.00220   0.00400   0.00060
O52       0.01930   0.02440   0.02680  -0.00120   0.00700  -0.00060
O53       0.02860   0.02230   0.01510  -0.00210   0.00290  -0.00050
C54       0.01870   0.01670   0.01670  -0.00420   0.00530   0.00020
Ca55      0.02350   0.01580   0.01250   0.00320   0.00861   0.00127
S56       0.02130   0.01590   0.01560   0.00040   0.00530   0.00010
O57       0.02470   0.03190   0.02380   0.00840   0.01020   0.00150
O58       0.02600   0.02090   0.01720   0.00420   0.00880  -0.00200
O59       0.02730   0.02560   0.03020   0.00610   0.01450   0.00110
O60       0.03130   0.01870   0.01490   0.00010   0.00850  -0.00330
C61       0.02960   0.02600   0.02440   0.00550   0.00800   0.00450
C63       0.02830   0.01830   0.01940  -0.00030   0.01250   0.00130
C65       0.02300   0.01920   0.01920   0.00150   0.00990   0.00030
C67       0.02320   0.02070   0.02040   0.00110   0.01160   0.00050
C69       0.02890   0.01840   0.01580   0.00110   0.01130  -0.00150
C71       0.02430   0.02250   0.01880  -0.00080   0.01010   0.00330
C73       0.02990   0.02080   0.02060  -0.00140   0.01300   0.00320
O75       0.02810   0.02020   0.01590   0.00330   0.01000   0.00460
C76       0.02670   0.01970   0.01360  -0.00050   0.00860   0.00160
N78       0.02170   0.02400   0.02400   0.00190   0.00840  -0.00340
C79       0.02720   0.02150   0.01980   0.00140   0.00510  -0.00140
C81       0.02220   0.01460   0.01540   0.00250   0.00600   0.00110
C82       0.03720   0.03750   0.04440  -0.00270   0.02620  -0.00660
N86       0.02180   0.02930   0.02200   0.00290   0.00910  -0.00000
C87       0.03660   0.03740   0.03670   0.01210   0.00990   0.00590
C91       0.02220   0.01630   0.01270  -0.00260   0.00580  -0.00220
C92       0.01780   0.01570   0.01800  -0.00290   0.00470  -0.00130
C93       0.03190   0.02070   0.01450   0.00030   0.01130  -0.00090
C95       0.04710   0.03390   0.02590   0.00270   0.01730   0.00560
C99       0.03550   0.05600   0.03830   0.01760   0.01710   0.00030
O103      0.03200   0.02000   0.01790  -0.00270   0.00950   0.00170
C104      0.02500   0.01390   0.01700   0.00050   0.00720   0.00170
C105      0.02080   0.01530   0.01450  -0.00220   0.00400  -0.00060
O106      0.01930   0.02440   0.02680   0.00120   0.00700   0.00060
O107      0.02860   0.02230   0.01510   0.00210   0.00290   0.00050
C108      0.01870   0.01670   0.01670   0.00420   0.00530  -0.00020
Ca109     0.02350   0.01580   0.01250  -0.00320   0.00861  -0.00127
S110      0.02130   0.01590   0.01560  -0.00040   0.00530  -0.00010
O111      0.02470   0.03190   0.02380  -0.00840   0.01020  -0.00150
O112      0.02600   0.02090   0.01720  -0.00420   0.00880   0.00200
O113      0.02730   0.02560   0.03020  -0.00610   0.01450  -0.00110
O114      0.03130   0.01870   0.01490  -0.00010   0.00850   0.00330
C115      0.02960   0.02600   0.02440  -0.00550   0.00800  -0.00450
C117      0.02830   0.01830   0.01940   0.00030   0.01250  -0.00130
C119      0.02300   0.01920   0.01920  -0.00150   0.00990  -0.00030
C121      0.02320   0.02070   0.02040  -0.00110   0.01160  -0.00050
C123      0.02890   0.01840   0.01580  -0.00110   0.01130   0.00150
C125      0.02430   0.02250   0.01880   0.00080   0.01010  -0.00330
C127      0.02990   0.02080   0.02060   0.00140   0.01300  -0.00320
O129      0.02810   0.02020   0.01590  -0.00330   0.01000  -0.00460
C130      0.02670   0.01970   0.01360   0.00050   0.00860  -0.00160
N132      0.02170   0.02400   0.02400  -0.00190   0.00840   0.00340
C133      0.02720   0.02150   0.01980  -0.00140   0.00510   0.00140
C135      0.02220   0.01460   0.01540  -0.00250   0.00600  -0.00110
C136      0.03720   0.03750   0.04440   0.00270   0.02620   0.00660
N140      0.02180   0.02930   0.02200  -0.00290   0.00910   0.00000
C141      0.03660   0.03740   0.03670  -0.01210   0.00990  -0.00590
C145      0.02220   0.01630   0.01270   0.00260   0.00580   0.00220
C146      0.01780   0.01570   0.01800   0.00290   0.00470   0.00130
C147      0.03190   0.02070   0.01450  -0.00030   0.01130   0.00090
C149      0.04710   0.03390   0.02590  -0.00270   0.01730  -0.00560
C153      0.03550   0.05600   0.03830  -0.01760   0.01710  -0.00030
O157      0.03200   0.02000   0.01790   0.00270   0.00950  -0.00170
C158      0.02500   0.01390   0.01700  -0.00050   0.00720  -0.00170
C159      0.02080   0.01530   0.01450   0.00220   0.00400   0.00060
O160      0.01930   0.02440   0.02680  -0.00120   0.00700  -0.00060
O161      0.02860   0.02230   0.01510  -0.00210   0.00290  -0.00050
C162      0.01870   0.01670   0.01670  -0.00420   0.00530   0.00020
Ca163     0.02350   0.01580   0.01250   0.00320   0.00861   0.00127
S164      0.02130   0.01590   0.01560   0.00040   0.00530   0.00010
O165      0.02470   0.03190   0.02380   0.00840   0.01020   0.00150
O166      0.02600   0.02090   0.01720   0.00420   0.00880  -0.00200
O167      0.02730   0.02560   0.03020   0.00610   0.01450   0.00110
O168      0.03130   0.01870   0.01490   0.00010   0.00850  -0.00330
C169      0.02960   0.02600   0.02440   0.00550   0.00800   0.00450
C171      0.02830   0.01830   0.01940  -0.00030   0.01250   0.00130
C173      0.02300   0.01920   0.01920   0.00150   0.00990   0.00030
C175      0.02320   0.02070   0.02040   0.00110   0.01160   0.00050
C177      0.02890   0.01840   0.01580   0.00110   0.01130  -0.00150
C179      0.02430   0.02250   0.01880  -0.00080   0.01010   0.00330
C181      0.02990   0.02080   0.02060  -0.00140   0.01300   0.00320
O183      0.02810   0.02020   0.01590   0.00330   0.01000   0.00460
C184      0.02670   0.01970   0.01360  -0.00050   0.00860   0.00160
N186      0.02170   0.02400   0.02400   0.00190   0.00840  -0.00340
C187      0.02720   0.02150   0.01980   0.00140   0.00510  -0.00140
C189      0.02220   0.01460   0.01540   0.00250   0.00600   0.00110
C190      0.03720   0.03750   0.04440  -0.00270   0.02620  -0.00660
N194      0.02180   0.02930   0.02200   0.00290   0.00910  -0.00000
C195      0.03660   0.03740   0.03670   0.01210   0.00990   0.00590
C199      0.02220   0.01630   0.01270  -0.00260   0.00580  -0.00220
C200      0.01780   0.01570   0.01800  -0.00290   0.00470  -0.00130
C201      0.03190   0.02070   0.01450   0.00030   0.01130  -0.00090
C203      0.04710   0.03390   0.02590   0.00270   0.01730   0.00560
C207      0.03550   0.05600   0.03830   0.01760   0.01710   0.00030
O211      0.03200   0.02000   0.01790  -0.00270   0.00950   0.00170
C212      0.02500   0.01390   0.01700   0.00050   0.00720   0.00170
C213      0.02080   0.01530   0.01450  -0.00220   0.00400  -0.00060
O214      0.01930   0.02440   0.02680   0.00120   0.00700   0.00060
O215      0.02860   0.02230   0.01510   0.00210   0.00290   0.00050
C216      0.01870   0.01670   0.01670   0.00420   0.00530  -0.00020
loop_
_geom_bond_atom_site_label_1
_geom_bond_atom_site_label_2
_geom_bond_distance
_geom_bond_site_symmetry_2
_ccdc_geom_bond_type
Ca1    O3      2.361   .     S
Ca1    O4      2.342   .     S
Ca1    O5      2.341   .     S
Ca1    O168    2.332   .     S
Ca1    O129    2.328   .     S
Ca1    O103    2.329   .     S
S2     C50     1.767   .     S
S2     C51     1.769   .     S
S2     O52     1.440   .     S
S2     O53     1.440   .     S
O3     C25     1.246   .     S
O4     C38     1.254   1_554 S
O5     C7      1.247   .     S
O6     C54     1.258   .     S
O6     Ca163   2.332   1_565 S
C7     H8      0.929   .     S
C7     N32     1.318   .     S
C9     H10     0.930   .     S
C9     C15     1.388   .     S
C9     C27     1.394   .     S
C11    H12     0.931   .     S
C11    C22     1.385   1_554 S
C11    C51     1.389   .     S
C13    H14     0.931   .     S
C13    C17     1.383   .     S
C13    C37     1.395   .     S
C15    H16     0.930   .     S
C15    C50     1.387   .     S
C17    H18     0.930   .     S
C17    C51     1.397   .     S
C19    H20     0.930   1_554 S
C19    C39     1.388   1_554 S
C19    C50     1.390   .     S
H20    C19     0.930   1_556 S
O21    C38     1.252   .     S
O21    Ca109   2.328   .     S
C22    C11     1.385   1_556 S
C22    H23     0.930   .     S
C22    C37     1.390   1_556 S
N24    C25     1.318   .     S
N24    C28     1.455   .     S
N24    C33     1.444   .     S
C25    H26     0.931   .     S
C27    C54     1.514   1_554 S
C27    C39     1.393   1_554 S
C28    H29     0.960   .     S
C28    H30     0.960   .     S
C28    H31     0.960   .     S
N32    C41     1.455   .     S
N32    C45     1.447   .     S
C33    H34     0.960   .     S
C33    H35     0.960   .     S
C33    H36     0.960   .     S
C37    C22     1.390   1_554 S
C37    C38     1.518   1_554 S
C38    O4      1.254   1_556 S
C38    C37     1.518   1_556 S
C39    C19     1.388   1_556 S
C39    H40     0.930   .     S
C39    C27     1.393   1_556 S
C41    H42     0.959   .     S
C41    H43     0.960   .     S
C41    H44     0.960   .     S
C45    H46     0.961   .     S
C45    H47     0.960   .     S
C45    H48     0.960   .     S
O49    C54     1.253   1_554 S
O49    Ca55    2.329   .     S
C54    O49     1.253   1_556 S
C54    C27     1.514   1_556 S
Ca55   O57     2.361   1_565 S
Ca55   O58     2.342   1_565 S
Ca55   O59     2.341   .     S
Ca55   O114    2.332   1_565 S
Ca55   O183    2.328   .     S
S56    C104    1.767   .     S
S56    C105    1.769   .     S
S56    O106    1.440   .     S
S56    O107    1.440   .     S
O57    Ca55    2.361   1_545 S
O57    C79     1.246   .     S
O58    Ca55    2.342   1_545 S
O58    C92     1.254   .     S
O59    C61     1.247   .     S
O60    C108    1.258   .     S
O60    Ca109   2.332   .     S
C61    H62     0.929   .     S
C61    N86     1.318   .     S
C63    H64     0.930   .     S
C63    C69     1.388   .     S
C63    C81     1.394   .     S
C65    H66     0.931   .     S
C65    C76     1.385   .     S
C65    C105    1.389   .     S
C67    H68     0.931   .     S
C67    C71     1.383   .     S
C67    C91     1.395   .     S
C69    H70     0.930   .     S
C69    C104    1.387   .     S
C71    H72     0.930   .     S
C71    C105    1.397   .     S
C73    H74     0.930   .     S
C73    C93     1.388   .     S
C73    C104    1.390   .     S
O75    C92     1.252   .     S
O75    Ca163   2.328   .     S
C76    H77     0.930   .     S
C76    C91     1.390   .     S
N78    C79     1.318   .     S
N78    C82     1.455   .     S
N78    C87     1.444   .     S
C79    H80     0.931   .     S
C81    C108    1.514   .     S
C81    C93     1.393   .     S
C82    H83     0.960   .     S
C82    H84     0.960   .     S
C82    H85     0.960   .     S
N86    C95     1.455   .     S
N86    C99     1.447   .     S
C87    H88     0.960   .     S
C87    H89     0.960   .     S
C87    H90     0.960   .     S
C91    C92     1.518   .     S
C93    H94     0.930   .     S
C95    H96     0.959   .     S
C95    H97     0.960   .     S
C95    H98     0.960   .     S
C99    H100    0.961   .     S
C99    H101    0.960   .     S
C99    H102    0.960   .     S
O103   C108    1.253   .     S
Ca109  O111    2.361   .     S
Ca109  O112    2.342   .     S
Ca109  O113    2.341   .     S
Ca109  O211    2.329   .     S
S110   C158    1.767   .     S
S110   C159    1.769   .     S
S110   O160    1.440   .     S
S110   O161    1.440   .     S
O111   C133    1.246   .     S
O112   C146    1.254   1_556 S
O113   C115    1.247   .     S
O114   C162    1.258   .     S
O114   Ca55    2.332   1_545 S
C115   H116    0.929   .     S
C115   N140    1.318   .     S
C117   H118    0.930   .     S
C117   C123    1.388   .     S
C117   C135    1.394   .     S
C119   H120    0.931   .     S
C119   C130    1.385   1_556 S
C119   C159    1.389   .     S
C121   H122    0.931   .     S
C121   C125    1.383   .     S
C121   C145    1.395   .     S
C123   H124    0.930   .     S
C123   C158    1.387   .     S
C125   H126    0.930   .     S
C125   C159    1.397   .     S
C127   H128    0.930   1_556 S
C127   C147    1.388   1_556 S
C127   C158    1.390   .     S
H128   C127    0.930   1_554 S
O129   C146    1.252   .     S
C130   C119    1.385   1_554 S
C130   H131    0.930   .     S
C130   C145    1.390   1_554 S
N132   C133    1.318   .     S
N132   C136    1.455   .     S
N132   C141    1.444   .     S
C133   H134    0.931   .     S
C135   C162    1.514   1_556 S
C135   C147    1.393   1_556 S
C136   H137    0.960   .     S
C136   H138    0.960   .     S
C136   H139    0.960   .     S
N140   C149    1.455   .     S
N140   C153    1.447   .     S
C141   H142    0.960   .     S
C141   H143    0.960   .     S
C141   H144    0.960   .     S
C145   C130    1.390   1_556 S
C145   C146    1.518   1_556 S
C146   O112    1.254   1_554 S
C146   C145    1.518   1_554 S
C147   C127    1.388   1_554 S
C147   H148    0.930   .     S
C147   C135    1.393   1_554 S
C149   H150    0.959   .     S
C149   H151    0.960   .     S
C149   H152    0.960   .     S
C153   H154    0.961   .     S
C153   H155    0.960   .     S
C153   H156    0.960   .     S
O157   C162    1.253   1_556 S
O157   Ca163   2.329   .     S
C162   O157    1.253   1_554 S
C162   C135    1.514   1_554 S
Ca163  O165    2.361   1_545 S
Ca163  O166    2.342   1_545 S
Ca163  O167    2.341   .     S
Ca163  O6      2.332   1_545 S
S164   C212    1.767   .     S
S164   C213    1.769   .     S
S164   O214    1.440   .     S
S164   O215    1.440   .     S
O165   Ca163   2.361   1_565 S
O165   C187    1.246   .     S
O166   Ca163   2.342   1_565 S
O166   C200    1.254   .     S
O167   C169    1.247   .     S
O168   C216    1.258   .     S
C169   H170    0.929   .     S
C169   N194    1.318   .     S
C171   H172    0.930   .     S
C171   C177    1.388   .     S
C171   C189    1.394   .     S
C173   H174    0.931   .     S
C173   C184    1.385   .     S
C173   C213    1.389   .     S
C175   H176    0.931   .     S
C175   C179    1.383   .     S
C175   C199    1.395   .     S
C177   H178    0.930   .     S
C177   C212    1.387   .     S
C179   H180    0.930   .     S
C179   C213    1.397   .     S
C181   H182    0.930   .     S
C181   C201    1.388   .     S
C181   C212    1.390   .     S
O183   C200    1.252   .     S
C184   H185    0.930   .     S
C184   C199    1.390   .     S
N186   C187    1.318   .     S
N186   C190    1.455   .     S
N186   C195    1.444   .     S
C187   H188    0.931   .     S
C189   C216    1.514   .     S
C189   C201    1.393   .     S
C190   H191    0.960   .     S
C190   H192    0.960   .     S
C190   H193    0.960   .     S
N194   C203    1.455   .     S
N194   C207    1.447   .     S
C195   H196    0.960   .     S
C195   H197    0.960   .     S
C195   H198    0.960   .     S
C199   C200    1.518   .     S
C201   H202    0.930   .     S
C203   H204    0.959   .     S
C203   H205    0.960   .     S
C203   H206    0.960   .     S
C207   H208    0.961   .     S
C207   H209    0.960   .     S
C207   H210    0.960   .     S
O211   C216    1.253   .     S
