data_SAZBEC_FSR
_audit_creation_date              2024-06-11
_audit_creation_method            'Materials Studio'
_symmetry_space_group_name_H-M    'P1'
_symmetry_Int_Tables_number       1
_symmetry_cell_setting            triclinic
loop_
_symmetry_equiv_pos_as_xyz
  x,y,z
_cell_length_a                    13.9492
_cell_length_b                    15.6692
_cell_length_c                    15.9071
_cell_angle_alpha                 60.9190
_cell_angle_beta                  72.6260
_cell_angle_gamma                 88.3890
loop_
_atom_site_label
_atom_site_type_symbol
_atom_site_fract_x
_atom_site_fract_y
_atom_site_fract_z
_atom_site_U_iso_or_equiv
_atom_site_adp_type
_atom_site_occupancy
C1     C     0.05680   0.10580   0.72660   0.00000  Uiso   1.00
C2     C     0.96220   0.14070   0.70030   0.00000  Uiso   1.00
C3     C     0.86970   0.07930   0.75450   0.00000  Uiso   1.00
H4     H     0.86510   0.01690   0.80960   0.00000  Uiso   1.00
C5     C     0.78420   0.11070   0.72660   0.00000  Uiso   1.00
H6     H     0.72250   0.06950   0.76120   0.00000  Uiso   1.00
C7     C     0.79330   0.20580   0.64560   0.00000  Uiso   1.00
C8     C     0.88340   0.26890   0.59250   0.00000  Uiso   1.00
H9     H     0.88740   0.33250   0.53940   0.00000  Uiso   1.00
C10    C     0.96860   0.23480   0.62080   0.00000  Uiso   1.00
H11    H     0.03040   0.27600   0.58580   0.00000  Uiso   1.00
C12    C     0.69090   0.19350   0.52790   0.00000  Uiso   1.00
C13    C     0.62230   0.11190   0.56360   0.00000  Uiso   1.00
H14    H     0.57210   0.08520   0.62690   0.00000  Uiso   1.00
C15    C     0.63080   0.07140   0.50170   0.00000  Uiso   1.00
H16    H     0.58440   0.01750   0.52320   0.00000  Uiso   1.00
C17    C     0.70790   0.10990   0.40720   0.00000  Uiso   1.00
C18    C     0.77290   0.18990   0.37550   0.00000  Uiso   1.00
H19    H     0.82340   0.21600   0.31250   0.00000  Uiso   1.00
C20    C     0.76730   0.23480   0.43360   0.00000  Uiso   1.00
H21    H     0.81260   0.29000   0.41050   0.00000  Uiso   1.00
C22    C     0.71780   0.05900   0.34720   0.00000  Uiso   1.00
C23    C     0.42470   0.23360   0.55170   0.00000  Uiso   1.00
H24    H     0.43040   0.18320   0.53620   0.00000  Uiso   1.00
C25    C     0.54630   0.34160   0.38560   0.00000  Uiso   1.00
H26    H     0.54510   0.28580   0.37600   0.00000  Uiso   1.00
H27    H     0.52800   0.39650   0.33300   0.00000  Uiso   1.00
H28    H     0.61330   0.35870   0.38260   0.00000  Uiso   1.00
C29    C     0.47260   0.39940   0.50330   0.00000  Uiso   1.00
H30    H     0.41690   0.38210   0.56420   0.00000  Uiso   1.00
H31    H     0.53490   0.41080   0.51280   0.00000  Uiso   1.00
H32    H     0.46320   0.45820   0.44760   0.00000  Uiso   1.00
C33    C     0.44070   0.04970   0.86010   0.00000  Uiso   1.00
C34    C     0.16720  -0.37360   0.95950   0.00000  Uiso   1.00
H35    H     0.12690  -0.38440   0.02300   0.00000  Uiso   1.00
C36    C     0.30910  -0.40860   0.85850   0.00000  Uiso   1.00
H37    H     0.27720  -0.38090   0.80690   0.00000  Uiso   1.00
H38    H     0.36320  -0.36110   0.84260   0.00000  Uiso   1.00
H39    H     0.33590  -0.46670   0.86140   0.00000  Uiso   1.00
C40    C     0.14940  -0.15140   0.03100   0.00000  Uiso   1.00
C41    C     0.22550  -0.22070   0.06010   0.00000  Uiso   1.00
C42    C     0.29780  -0.23420   0.98830   0.00000  Uiso   1.00
H43    H     0.29850  -0.20230   0.92120   0.00000  Uiso   1.00
C44    C     0.36870  -0.29500   0.01630   0.00000  Uiso   1.00
H45    H     0.41800  -0.30380   0.96810   0.00000  Uiso   1.00
C46    C     0.36680  -0.34300   0.11640   0.00000  Uiso   1.00
C47    C     0.29450  -0.33070   0.18960   0.00000  Uiso   1.00
H48    H     0.29440  -0.36250   0.25650   0.00000  Uiso   1.00
C49    C     0.22280  -0.27060   0.16170   0.00000  Uiso   1.00
H50    H     0.17250  -0.26310   0.21040   0.00000  Uiso   1.00
C51    C     0.56360  -0.33890   0.12380   0.00000  Uiso   1.00
C52    C     0.63710  -0.29570   0.02780   0.00000  Uiso   1.00
H53    H     0.63010  -0.30770   0.97800   0.00000  Uiso   1.00
C54    C     0.72030  -0.23470   0.00780   0.00000  Uiso   1.00
H55    H     0.77120  -0.20770   0.94490   0.00000  Uiso   1.00
C56    C     0.72890  -0.21330   0.08070   0.00000  Uiso   1.00
C57    C     0.65310  -0.25500   0.17440   0.00000  Uiso   1.00
H58    H     0.65790  -0.24090   0.22360   0.00000  Uiso   1.00
C59    C     0.57080  -0.31720   0.19530   0.00000  Uiso   1.00
H60    H     0.52000  -0.34440   0.25830   0.00000  Uiso   1.00
C61    C     0.82100  -0.14530   0.05560   0.00000  Uiso   1.00
C62    C     0.24260  -0.52220   0.05180   0.00000  Uiso   1.00
H63    H     0.30660  -0.54460   0.03540   0.00000  Uiso   1.00
H64    H     0.23850  -0.50400   0.10220   0.00000  Uiso   1.00
H65    H     0.18850  -0.57410   0.07790   0.00000  Uiso   1.00
C66    C     0.92830  -0.36210   0.12410   0.00000  Uiso   1.00
H67    H     0.90700  -0.40390   0.10510   0.00000  Uiso   1.00
C68    C     0.91450  -0.33120   0.25490   0.00000  Uiso   1.00
H69    H     0.96530  -0.36370   0.28390   0.00000  Uiso   1.00
H70    H     0.94360  -0.26590   0.19960   0.00000  Uiso   1.00
H71    H     0.85960  -0.32740   0.30590   0.00000  Uiso   1.00
C72    C     0.80210  -0.46870   0.29840   0.00000  Uiso   1.00
H73    H     0.74880  -0.44530   0.33260   0.00000  Uiso   1.00
H74    H     0.77440  -0.50170   0.27170   0.00000  Uiso   1.00
H75    H     0.83350  -0.51400   0.34580   0.00000  Uiso   1.00
C76    C     0.91300  -0.20700   0.77000   0.00000  Uiso   1.00
H77    H     0.86900  -0.21630   0.74010   0.00000  Uiso   1.00
N78    N     0.23350  -0.43490   0.95830   0.00000  Uiso   1.00
N79    N     0.47700   0.31810   0.48100   0.00000  Uiso   1.00
N80    N     0.47940   0.01440   0.94000   0.00000  Uiso   1.00
N81    N     0.87600  -0.38730   0.21710   0.00000  Uiso   1.00
O82    O     0.14030   0.15840   0.66480   0.00000  Uiso   1.00
O83    O     0.04890   0.02560   0.80830   0.00000  Uiso   1.00
O84    O     0.59520   0.20030   0.69240   0.00000  Uiso   1.00
O85    O     0.70620   0.35040   0.54230   0.00000  Uiso   1.00
O86    O     0.79560   0.08580   0.27060   0.00000  Uiso   1.00
O87    O     0.64770  -0.00700   0.37230   0.00000  Uiso   1.00
O88    O     0.97200  -0.10490   0.71940   0.00000  Uiso   1.00
O89    O     0.92350  -0.31220   0.88590   0.00000  Uiso   1.00
O90    O     0.15340  -0.30350   0.88480   0.00000  Uiso   1.00
O91    O     0.36770   0.21180   0.63810   0.00000  Uiso   1.00
O92    O     0.39270   0.00600   0.84500   0.00000  Uiso   1.00
O93    O     0.99530  -0.30100   0.05670   0.00000  Uiso   1.00
O94    O     0.15110  -0.10720   0.93890   0.00000  Uiso   1.00
O95    O     0.08830  -0.13950   0.09680   0.00000  Uiso   1.00
O96    O     0.42220  -0.48610   0.25910   0.00000  Uiso   1.00
O97    O     0.48940  -0.46020   0.08420   0.00000  Uiso   1.00
O98    O     0.89460  -0.12570   0.97930   0.00000  Uiso   1.00
O99    O     0.81770  -0.11410   0.11610   0.00000  Uiso   1.00
S100   S     0.68741   0.24587   0.60475   0.00000  Uiso   1.00
S101   S     0.45909  -0.42038   0.15136   0.00000  Uiso   1.00
Sr102  Sr    0.03834  -0.16774   0.87013   0.00000  Uiso   1.00
Sr103  Sr    0.25196   0.04881   0.76694   0.00000  Uiso   1.00
C104   C     0.94320  -0.10580   0.27340   0.00000  Uiso   1.00
C105   C     0.03780  -0.14070   0.29970   0.00000  Uiso   1.00
C106   C     0.13030  -0.07930   0.24550   0.00000  Uiso   1.00
H107   H     0.13490  -0.01690   0.19040   0.00000  Uiso   1.00
C108   C     0.21580  -0.11070   0.27340   0.00000  Uiso   1.00
H109   H     0.27750  -0.06950   0.23880   0.00000  Uiso   1.00
C110   C     0.20670  -0.20580   0.35440   0.00000  Uiso   1.00
C111   C     0.11660  -0.26890   0.40750   0.00000  Uiso   1.00
H112   H     0.11260  -0.33250   0.46060   0.00000  Uiso   1.00
C113   C     0.03140  -0.23480   0.37920   0.00000  Uiso   1.00
H114   H     0.96960  -0.27600   0.41420   0.00000  Uiso   1.00
C115   C     0.30910  -0.19350   0.47210   0.00000  Uiso   1.00
C116   C     0.37770  -0.11190   0.43640   0.00000  Uiso   1.00
H117   H     0.42790  -0.08520   0.37310   0.00000  Uiso   1.00
C118   C     0.36920  -0.07140   0.49830   0.00000  Uiso   1.00
H119   H     0.41560  -0.01750   0.47680   0.00000  Uiso   1.00
C120   C     0.29210  -0.10990   0.59280   0.00000  Uiso   1.00
C121   C     0.22710  -0.18990   0.62450   0.00000  Uiso   1.00
H122   H     0.17660  -0.21600   0.68750   0.00000  Uiso   1.00
C123   C     0.23270  -0.23480   0.56640   0.00000  Uiso   1.00
H124   H     0.18740  -0.29000   0.58950   0.00000  Uiso   1.00
C125   C     0.28220  -0.05900   0.65280   0.00000  Uiso   1.00
C126   C     0.57530  -0.23360   0.44830   0.00000  Uiso   1.00
H127   H     0.56960  -0.18320   0.46380   0.00000  Uiso   1.00
C128   C     0.45370  -0.34160   0.61440   0.00000  Uiso   1.00
H129   H     0.45490  -0.28580   0.62400   0.00000  Uiso   1.00
H130   H     0.47200  -0.39650   0.66700   0.00000  Uiso   1.00
H131   H     0.38670  -0.35870   0.61740   0.00000  Uiso   1.00
C132   C     0.52740  -0.39940   0.49670   0.00000  Uiso   1.00
H133   H     0.58310  -0.38210   0.43580   0.00000  Uiso   1.00
H134   H     0.46510  -0.41080   0.48720   0.00000  Uiso   1.00
H135   H     0.53680  -0.45820   0.55240   0.00000  Uiso   1.00
C136   C     0.55930  -0.04970   0.13990   0.00000  Uiso   1.00
C137   C     0.83280   0.37360   0.04050   0.00000  Uiso   1.00
H138   H     0.87310   0.38440   0.97700   0.00000  Uiso   1.00
C139   C     0.69090   0.40860   0.14150   0.00000  Uiso   1.00
H140   H     0.72280   0.38090   0.19310   0.00000  Uiso   1.00
H141   H     0.63680   0.36110   0.15740   0.00000  Uiso   1.00
H142   H     0.66410   0.46670   0.13860   0.00000  Uiso   1.00
C143   C     0.85060   0.15140   0.96900   0.00000  Uiso   1.00
C144   C     0.77450   0.22070   0.93990   0.00000  Uiso   1.00
C145   C     0.70220   0.23420   0.01170   0.00000  Uiso   1.00
H146   H     0.70150   0.20230   0.07880   0.00000  Uiso   1.00
C147   C     0.63130   0.29500   0.98370   0.00000  Uiso   1.00
H148   H     0.58200   0.30380   0.03190   0.00000  Uiso   1.00
C149   C     0.63320   0.34300   0.88360   0.00000  Uiso   1.00
C150   C     0.70550   0.33070   0.81040   0.00000  Uiso   1.00
H151   H     0.70560   0.36250   0.74350   0.00000  Uiso   1.00
C152   C     0.77720   0.27060   0.83830   0.00000  Uiso   1.00
H153   H     0.82750   0.26310   0.78960   0.00000  Uiso   1.00
C154   C     0.43640   0.33890   0.87620   0.00000  Uiso   1.00
C155   C     0.36290   0.29570   0.97220   0.00000  Uiso   1.00
H156   H     0.36990   0.30770   0.02200   0.00000  Uiso   1.00
C157   C     0.27970   0.23470   0.99220   0.00000  Uiso   1.00
H158   H     0.22880   0.20770   0.05510   0.00000  Uiso   1.00
C159   C     0.27110   0.21330   0.91930   0.00000  Uiso   1.00
C160   C     0.34690   0.25500   0.82560   0.00000  Uiso   1.00
H161   H     0.34210   0.24090   0.77640   0.00000  Uiso   1.00
C162   C     0.42920   0.31720   0.80470   0.00000  Uiso   1.00
H163   H     0.48000   0.34440   0.74170   0.00000  Uiso   1.00
C164   C     0.17900   0.14530   0.94440   0.00000  Uiso   1.00
C165   C     0.75740   0.52220   0.94820   0.00000  Uiso   1.00
H166   H     0.69340   0.54460   0.96460   0.00000  Uiso   1.00
H167   H     0.76150   0.50400   0.89780   0.00000  Uiso   1.00
H168   H     0.81150   0.57410   0.92210   0.00000  Uiso   1.00
C169   C     0.07170   0.36210   0.87590   0.00000  Uiso   1.00
H170   H     0.09300   0.40390   0.89490   0.00000  Uiso   1.00
C171   C     0.08550   0.33120   0.74510   0.00000  Uiso   1.00
H172   H     0.03470   0.36370   0.71610   0.00000  Uiso   1.00
H173   H     0.05640   0.26590   0.80040   0.00000  Uiso   1.00
H174   H     0.14040   0.32740   0.69410   0.00000  Uiso   1.00
C175   C     0.19790   0.46870   0.70160   0.00000  Uiso   1.00
H176   H     0.25120   0.44530   0.66740   0.00000  Uiso   1.00
H177   H     0.22560   0.50170   0.72830   0.00000  Uiso   1.00
H178   H     0.16650   0.51400   0.65420   0.00000  Uiso   1.00
C179   C     0.08700   0.20700   0.23000   0.00000  Uiso   1.00
H180   H     0.13100   0.21630   0.25990   0.00000  Uiso   1.00
N181   N     0.76650   0.43490   0.04170   0.00000  Uiso   1.00
N182   N     0.52300  -0.31810   0.51900   0.00000  Uiso   1.00
N183   N     0.52060  -0.01440   0.06000   0.00000  Uiso   1.00
N184   N     0.12400   0.38730   0.78290   0.00000  Uiso   1.00
O185   O     0.85970  -0.15840   0.33520   0.00000  Uiso   1.00
O186   O     0.95110  -0.02560   0.19170   0.00000  Uiso   1.00
O187   O     0.40480  -0.20030   0.30760   0.00000  Uiso   1.00
O188   O     0.29380  -0.35040   0.45770   0.00000  Uiso   1.00
O189   O     0.20440  -0.08580   0.72940   0.00000  Uiso   1.00
O190   O     0.35230   0.00700   0.62770   0.00000  Uiso   1.00
O191   O     0.02800   0.10490   0.28060   0.00000  Uiso   1.00
O192   O     0.07650   0.31220   0.11410   0.00000  Uiso   1.00
O193   O     0.84660   0.30350   0.11520   0.00000  Uiso   1.00
O194   O     0.63230  -0.21180   0.36190   0.00000  Uiso   1.00
O195   O     0.60730  -0.00600   0.15500   0.00000  Uiso   1.00
O196   O     0.00470   0.30100   0.94330   0.00000  Uiso   1.00
O197   O     0.84890   0.10720   0.06110   0.00000  Uiso   1.00
O198   O     0.91170   0.13950   0.90320   0.00000  Uiso   1.00
O199   O     0.57780   0.48610   0.74090   0.00000  Uiso   1.00
O200   O     0.51060   0.46020   0.91580   0.00000  Uiso   1.00
O201   O     0.10540   0.12570   0.02070   0.00000  Uiso   1.00
O202   O     0.18230   0.11410   0.88390   0.00000  Uiso   1.00
S203   S     0.31259  -0.24587   0.39525   0.00000  Uiso   1.00
S204   S     0.54091   0.42038   0.84864   0.00000  Uiso   1.00
Sr205  Sr    0.96166   0.16774   0.12987   0.00000  Uiso   1.00
Sr206  Sr    0.74804  -0.04881   0.23306   0.00000  Uiso   1.00
Sr207  Sr    0.00000   0.00000   0.00000   0.00000  Uiso   1.00
loop_
_geom_bond_atom_site_label_1
_geom_bond_atom_site_label_2
_geom_bond_distance
_geom_bond_site_symmetry_2
_ccdc_geom_bond_type
C1     C2      1.511   1_455 S
C1     O82     1.259   .     S
C1     O83     1.271   .     S
C2     C1      1.511   1_655 S
C2     C3      1.390   .     S
C2     C10     1.382   .     S
C3     H4      0.930   .     S
C3     C5      1.390   .     S
C5     H6      0.929   .     S
C5     C7      1.394   .     S
C7     C8      1.376   .     S
C7     S100    1.767   .     S
C8     H9      0.931   .     S
C8     C10     1.397   .     S
C10    H11     0.930   1_655 S
H11    C10     0.930   1_455 S
C12    C13     1.383   .     S
C12    C20     1.395   .     S
C12    S100    1.763   .     S
C13    H14     0.930   .     S
C13    C15     1.386   .     S
C15    H16     0.931   .     S
C15    C17     1.403   .     S
C17    C18     1.351   .     S
C17    C22     1.490   .     S
C18    H19     0.930   .     S
C18    C20     1.393   .     S
C20    H21     0.930   .     S
C22    O86     1.256   .     S
C22    O87     1.268   .     S
C23    H24     0.930   .     S
C23    N79     1.291   .     S
C23    O91     1.243   .     S
C25    H26     0.959   .     S
C25    H27     0.960   .     S
C25    H28     0.960   .     S
C25    N79     1.405   .     S
C29    H30     0.961   .     S
C29    H31     0.961   .     S
C29    H32     0.959   .     S
C29    N79     1.475   .     S
C33    N80     1.386   .     S
C33    O92     1.121   .     S
C34    H35     0.930   1_556 S
C34    N78     1.317   .     S
C34    O90     1.229   .     S
H35    C34     0.930   1_554 S
C36    H37     0.960   .     S
C36    H38     0.960   .     S
C36    H39     0.960   .     S
C36    N78     1.480   .     S
C40    C41     1.503   .     S
C40    O94     1.273   1_554 S
C40    O95     1.227   .     S
C41    C42     1.379   1_554 S
C41    C49     1.401   .     S
C42    C41     1.379   1_556 S
C42    H43     0.930   .     S
C42    C44     1.372   1_556 S
C44    C42     1.372   1_554 S
C44    H45     0.929   1_554 S
C44    C46     1.383   .     S
H45    C44     0.929   1_556 S
C46    C47     1.384   .     S
C46    S101    1.767   .     S
C47    H48     0.930   .     S
C47    C49     1.375   .     S
C49    H50     0.930   .     S
C51    C52     1.393   .     S
C51    C59     1.366   .     S
C51    S101    1.768   .     S
C52    H53     0.930   1_554 S
C52    C54     1.381   .     S
H53    C52     0.930   1_556 S
C54    H55     0.930   1_554 S
C54    C56     1.391   .     S
H55    C54     0.930   1_556 S
C56    C57     1.385   .     S
C56    C61     1.517   .     S
C57    H58     0.931   .     S
C57    C59     1.378   .     S
C59    H60     0.930   .     S
C61    O98     1.238   1_554 S
C61    O99     1.264   .     S
C62    H63     0.959   .     S
C62    H64     0.960   .     S
C62    H65     0.960   .     S
C62    N78     1.492   1_554 S
C66    H67     0.930   .     S
C66    N81     1.296   .     S
C66    O93     1.181   .     S
C68    H69     0.960   .     S
C68    H70     0.960   .     S
C68    H71     0.960   .     S
C68    N81     1.468   .     S
C72    H73     0.959   .     S
C72    H74     0.959   .     S
C72    H75     0.961   .     S
C72    N81     1.427   .     S
C76    H77     0.933   .     S
C76    O88     1.520   .     S
C76    O89     1.825   .     S
N78    C62     1.492   1_556 S
O82    Sr103   2.581   .     S
O83    Sr102   2.685   .     S
O83    Sr207   2.740   1_556 S
O83    Sr103   2.702   .     S
O84    S100    1.456   .     S
O85    S100    1.423   .     S
O86    Sr205   2.510   .     S
O86    Sr206   2.605   .     S
O87    Sr206   2.608   .     S
O88    Sr102   2.560   1_655 S
O89    Sr102   2.677   1_655 S
O90    Sr102   2.589   .     S
O91    Sr103   2.549   .     S
O92    Sr103   2.533   .     S
O93    Sr102   2.552   1_654 S
O94    C40     1.273   1_556 S
O94    Sr102   2.587   .     S
O94    Sr103   2.614   .     S
O94    Sr207   2.894   1_556 S
O95    Sr207   2.525   .     S
O96    S101    1.432   .     S
O97    S101    1.440   .     S
O98    C61     1.238   1_556 S
O98    Sr102   2.535   1_655 S
O98    Sr207   2.689   1_656 S
O99    Sr206   2.483   .     S
O99    Sr207   2.705   1_655 S
Sr102  O189    2.510   .     S
Sr102  O88     2.560   1_455 S
Sr102  O89     2.677   1_455 S
Sr102  O93     2.552   1_456 S
Sr102  O98     2.535   1_455 S
Sr103  O190    2.608   .     S
Sr103  O202    2.483   .     S
Sr103  O189    2.605   .     S
C104   C105    1.511   1_655 S
C104   O185    1.259   .     S
C104   O186    1.271   .     S
C105   C104    1.511   1_455 S
C105   C106    1.390   .     S
C105   C113    1.382   .     S
C106   H107    0.930   .     S
C106   C108    1.390   .     S
C108   H109    0.929   .     S
C108   C110    1.394   .     S
C110   C111    1.376   .     S
C110   S203    1.767   .     S
C111   H112    0.931   .     S
C111   C113    1.397   .     S
C113   H114    0.930   1_455 S
H114   C113    0.930   1_655 S
C115   C116    1.383   .     S
C115   C123    1.395   .     S
C115   S203    1.763   .     S
C116   H117    0.930   .     S
C116   C118    1.386   .     S
C118   H119    0.931   .     S
C118   C120    1.403   .     S
C120   C121    1.351   .     S
C120   C125    1.490   .     S
C121   H122    0.930   .     S
C121   C123    1.393   .     S
C123   H124    0.930   .     S
C125   O189    1.256   .     S
C125   O190    1.268   .     S
C126   H127    0.930   .     S
C126   N182    1.291   .     S
C126   O194    1.243   .     S
C128   H129    0.959   .     S
C128   H130    0.960   .     S
C128   H131    0.960   .     S
C128   N182    1.405   .     S
C132   H133    0.961   .     S
C132   H134    0.961   .     S
C132   H135    0.959   .     S
C132   N182    1.475   .     S
C136   N183    1.386   .     S
C136   O195    1.121   .     S
C137   H138    0.930   1_554 S
C137   N181    1.317   .     S
C137   O193    1.229   .     S
H138   C137    0.930   1_556 S
C139   H140    0.960   .     S
C139   H141    0.960   .     S
C139   H142    0.960   .     S
C139   N181    1.480   .     S
C143   C144    1.503   .     S
C143   O197    1.273   1_556 S
C143   O198    1.227   .     S
C144   C145    1.379   1_556 S
C144   C152    1.401   .     S
C145   C144    1.379   1_554 S
C145   H146    0.930   .     S
C145   C147    1.372   1_554 S
C147   C145    1.372   1_556 S
C147   H148    0.929   1_556 S
C147   C149    1.383   .     S
H148   C147    0.929   1_554 S
C149   C150    1.384   .     S
C149   S204    1.767   .     S
C150   H151    0.930   .     S
C150   C152    1.375   .     S
C152   H153    0.930   .     S
C154   C155    1.393   .     S
C154   C162    1.366   .     S
C154   S204    1.768   .     S
C155   H156    0.930   1_556 S
C155   C157    1.381   .     S
H156   C155    0.930   1_554 S
C157   H158    0.930   1_556 S
C157   C159    1.391   .     S
H158   C157    0.930   1_554 S
C159   C160    1.385   .     S
C159   C164    1.517   .     S
C160   H161    0.931   .     S
C160   C162    1.378   .     S
C162   H163    0.930   .     S
C164   O201    1.238   1_556 S
C164   O202    1.264   .     S
C165   H166    0.959   .     S
C165   H167    0.960   .     S
C165   H168    0.960   .     S
C165   N181    1.492   1_556 S
C169   H170    0.930   .     S
C169   N184    1.296   .     S
C169   O196    1.181   .     S
C171   H172    0.960   .     S
C171   H173    0.960   .     S
C171   H174    0.960   .     S
C171   N184    1.468   .     S
C175   H176    0.959   .     S
C175   H177    0.959   .     S
C175   H178    0.961   .     S
C175   N184    1.427   .     S
C179   H180    0.933   .     S
C179   O191    1.520   .     S
C179   O192    1.825   .     S
N181   C165    1.492   1_554 S
O185   Sr206   2.581   .     S
O186   Sr205   2.685   .     S
O186   Sr207   2.740   1_655 S
O186   Sr206   2.702   .     S
O187   S203    1.456   .     S
O188   S203    1.423   .     S
O191   Sr205   2.560   1_455 S
O192   Sr205   2.677   1_455 S
O193   Sr205   2.589   .     S
O194   Sr206   2.549   .     S
O195   Sr206   2.533   .     S
O196   Sr205   2.552   1_456 S
O197   C143    1.273   1_554 S
O197   Sr205   2.587   .     S
O197   Sr206   2.614   .     S
O197   Sr207   2.894   1_655 S
O198   Sr207   2.525   1_656 S
O199   S204    1.432   .     S
O200   S204    1.440   .     S
O201   C164    1.238   1_554 S
O201   Sr205   2.535   1_455 S
O201   Sr207   2.689   .     S
O202   Sr207   2.705   1_556 S
Sr205  O191    2.560   1_655 S
Sr205  O192    2.677   1_655 S
Sr205  O196    2.552   1_654 S
Sr205  O201    2.535   1_655 S
Sr207  O83     2.740   1_554 S
Sr207  O186    2.740   1_455 S
Sr207  O197    2.894   1_455 S
Sr207  O94     2.894   1_554 S
Sr207  O198    2.525   1_454 S
Sr207  O98     2.689   1_454 S
Sr207  O99     2.705   1_455 S
Sr207  O202    2.705   1_554 S
