data_SISZEC_FSR
_audit_creation_date              2024-06-11
_audit_creation_method            'Materials Studio'
_symmetry_space_group_name_H-M    'P1'
_symmetry_Int_Tables_number       1
_symmetry_cell_setting            triclinic
loop_
_symmetry_equiv_pos_as_xyz
  x,y,z
_cell_length_a                    10.1392
_cell_length_b                    13.6080
_cell_length_c                    13.6470
_cell_angle_alpha                 73.3300
_cell_angle_beta                  82.4700
_cell_angle_gamma                 81.9220
loop_
_atom_site_label
_atom_site_type_symbol
_atom_site_fract_x
_atom_site_fract_y
_atom_site_fract_z
_atom_site_U_iso_or_equiv
_atom_site_adp_type
_atom_site_occupancy
C1     C     0.04780   0.26520   0.60290   0.00000  Uiso   1.00
C2     C     0.06130   0.16190   0.66000   0.00000  Uiso   1.00
H3     H     0.98702   0.12517   0.67989   0.00000  Uiso   1.00
C4     C     0.18720   0.11430   0.68690   0.00000  Uiso   1.00
C5     C     0.29890   0.16790   0.65490   0.00000  Uiso   1.00
H6     H     0.38313   0.13469   0.67107   0.00000  Uiso   1.00
C7     C     0.28520   0.27140   0.59870   0.00000  Uiso   1.00
C8     C     0.15880   0.32050   0.57300   0.00000  Uiso   1.00
H9     H     0.14883   0.38966   0.53618   0.00000  Uiso   1.00
C10    C     0.91130   0.31590   0.57410   0.00000  Uiso   1.00
C11    C     0.40720   0.32770   0.56800   0.00000  Uiso   1.00
C12    C     0.67150   0.31410   0.34500   0.00000  Uiso   1.00
H13    H     0.66249   0.25545   0.39978   0.00000  Uiso   1.00
C14    C     0.67530   0.30490   0.24610   0.00000  Uiso   1.00
H15    H     0.67122   0.24130   0.23461   0.00000  Uiso   1.00
C16    C     0.68520   0.39330   0.16470   0.00000  Uiso   1.00
C17    C     0.69530   0.48650   0.18490   0.00000  Uiso   1.00
H18    H     0.70342   0.54659   0.13172   0.00000  Uiso   1.00
C19    C     0.69300   0.48730   0.28590   0.00000  Uiso   1.00
H20    H     0.70067   0.54924   0.29960   0.00000  Uiso   1.00
C21    C     0.65720   0.44730   0.89710   0.00000  Uiso   1.00
C22    C     0.64290   0.35280   0.88200   0.00000  Uiso   1.00
H23    H     0.63629   0.29418   0.93719   0.00000  Uiso   1.00
C24    C     0.63870   0.34850   0.78230   0.00000  Uiso   1.00
H25    H     0.63094   0.28513   0.77158   0.00000  Uiso   1.00
C26    C     0.65820   0.52140   0.71610   0.00000  Uiso   1.00
H27    H     0.66376   0.57906   0.65978   0.00000  Uiso   1.00
C28    C     0.66360   0.53270   0.81340   0.00000  Uiso   1.00
H29    H     0.67144   0.59696   0.82191   0.00000  Uiso   1.00
C30    C     0.00200   0.24530   0.89410   0.00000  Uiso   1.00
H31    H     0.99185   0.22487   0.83628   0.00000  Uiso   1.00
C32    C     0.99870   0.34970   0.88410   0.00000  Uiso   1.00
H33    H     0.98751   0.39834   0.82133   0.00000  Uiso   1.00
C34    C     0.01260   0.37910   0.97090   0.00000  Uiso   1.00
C35    C     0.03330   0.30490   0.06250   0.00000  Uiso   1.00
H36    H     0.04561   0.32333   0.12098   0.00000  Uiso   1.00
C37    C     0.03530   0.20220   0.06480   0.00000  Uiso   1.00
H38    H     0.04861   0.15191   0.12630   0.00000  Uiso   1.00
C39    C     0.66190   0.05160   0.74670   0.00000  Uiso   1.00
H40    H     0.58132   0.06006   0.71386   0.00000  Uiso   1.00
H41    H     0.72237   0.09844   0.70439   0.00000  Uiso   1.00
H42    H     0.70318   0.98200   0.75642   0.00000  Uiso   1.00
C43    C     0.48870   0.10380   0.87580   0.00000  Uiso   1.00
H44    H     0.43575   0.10388   0.82239   0.00000  Uiso   1.00
H45    H     0.45875   0.05557   0.93861   0.00000  Uiso   1.00
H46    H     0.47929   0.17160   0.88557   0.00000  Uiso   1.00
C47    C     0.72290   0.06750   0.90750   0.00000  Uiso   1.00
H48    H     0.69717   0.08111   0.97067   0.00000  Uiso   1.00
N49    N     0.68020   0.40290   0.36540   0.00000  Uiso   1.00
N50    N     0.68380   0.38000   0.06430   0.00000  Uiso   1.00
N51    N     0.66130   0.46260   0.99640   0.00000  Uiso   1.00
N52    N     0.64530   0.43120   0.70030   0.00000  Uiso   1.00
N53    N     0.01890   0.17220   0.98210   0.00000  Uiso   1.00
N54    N     0.00460   0.48920   0.95830   0.00000  Uiso   1.00
N55    N     0.62950   0.07360   0.84670   0.00000  Uiso   1.00
O56    O     0.89550   0.41160   0.53370   0.00000  Uiso   1.00
O57    O     0.81730   0.26020   0.59280   0.00000  Uiso   1.00
O58    O     0.39780   0.42110   0.51760   0.00000  Uiso   1.00
O59    O     0.51790   0.27920   0.59570   0.00000  Uiso   1.00
O60    O     0.34250   0.94510   0.74830   0.00000  Uiso   1.00
O61    O     0.10760   0.93200   0.73720   0.00000  Uiso   1.00
O62    O     0.17310   0.99520   0.87200   0.00000  Uiso   1.00
O63    O     0.84450   0.04430   0.88440   0.00000  Uiso   1.00
S64    S     0.20284   0.98560   0.76617   0.00000  Uiso   1.00
Cd65   Cd    0.66134   0.40435   0.53674   0.00000  Uiso   1.00
C66    C     0.95220   0.73480   0.39710   0.00000  Uiso   1.00
C67    C     0.93870   0.83810   0.34000   0.00000  Uiso   1.00
H68    H     0.01298   0.87483   0.32011   0.00000  Uiso   1.00
C69    C     0.81280   0.88570   0.31310   0.00000  Uiso   1.00
C70    C     0.70110   0.83210   0.34510   0.00000  Uiso   1.00
H71    H     0.61687   0.86531   0.32893   0.00000  Uiso   1.00
C72    C     0.71480   0.72860   0.40130   0.00000  Uiso   1.00
C73    C     0.84120   0.67950   0.42700   0.00000  Uiso   1.00
H74    H     0.85117   0.61034   0.46382   0.00000  Uiso   1.00
C75    C     0.08870   0.68410   0.42590   0.00000  Uiso   1.00
C76    C     0.59280   0.67230   0.43200   0.00000  Uiso   1.00
C77    C     0.32850   0.68590   0.65500   0.00000  Uiso   1.00
H78    H     0.33751   0.74455   0.60022   0.00000  Uiso   1.00
C79    C     0.32470   0.69510   0.75390   0.00000  Uiso   1.00
H80    H     0.32879   0.75870   0.76539   0.00000  Uiso   1.00
C81    C     0.31480   0.60670   0.83530   0.00000  Uiso   1.00
C82    C     0.30470   0.51350   0.81510   0.00000  Uiso   1.00
H83    H     0.29658   0.45341   0.86828   0.00000  Uiso   1.00
C84    C     0.30700   0.51270   0.71410   0.00000  Uiso   1.00
H85    H     0.29933   0.45076   0.70040   0.00000  Uiso   1.00
C86    C     0.34280   0.55270   0.10290   0.00000  Uiso   1.00
C87    C     0.35710   0.64720   0.11800   0.00000  Uiso   1.00
H88    H     0.36371   0.70582   0.06281   0.00000  Uiso   1.00
C89    C     0.36130   0.65150   0.21770   0.00000  Uiso   1.00
H90    H     0.36906   0.71487   0.22842   0.00000  Uiso   1.00
C91    C     0.34180   0.47860   0.28390   0.00000  Uiso   1.00
H92    H     0.33624   0.42094   0.34022   0.00000  Uiso   1.00
C93    C     0.33640   0.46730   0.18660   0.00000  Uiso   1.00
H94    H     0.32856   0.40304   0.17809   0.00000  Uiso   1.00
C95    C     0.99800   0.75470   0.10590   0.00000  Uiso   1.00
H96    H     0.00815   0.77513   0.16372   0.00000  Uiso   1.00
C97    C     0.00130   0.65030   0.11590   0.00000  Uiso   1.00
H98    H     0.01249   0.60166   0.17867   0.00000  Uiso   1.00
C99    C     0.98740   0.62090   0.02910   0.00000  Uiso   1.00
C100   C     0.96670   0.69510   0.93750   0.00000  Uiso   1.00
H101   H     0.95439   0.67667   0.87902   0.00000  Uiso   1.00
C102   C     0.96470   0.79780   0.93520   0.00000  Uiso   1.00
H103   H     0.95140   0.84808   0.87370   0.00000  Uiso   1.00
C104   C     0.33810   0.94840   0.25330   0.00000  Uiso   1.00
H105   H     0.41868   0.93994   0.28614   0.00000  Uiso   1.00
H106   H     0.27763   0.90156   0.29561   0.00000  Uiso   1.00
H107   H     0.29682   0.01800   0.24358   0.00000  Uiso   1.00
C108   C     0.51130   0.89620   0.12420   0.00000  Uiso   1.00
H109   H     0.56425   0.89612   0.17761   0.00000  Uiso   1.00
H110   H     0.54125   0.94443   0.06139   0.00000  Uiso   1.00
H111   H     0.52071   0.82840   0.11442   0.00000  Uiso   1.00
C112   C     0.27710   0.93250   0.09250   0.00000  Uiso   1.00
H113   H     0.30283   0.91889   0.02933   0.00000  Uiso   1.00
N114   N     0.31980   0.59710   0.63460   0.00000  Uiso   1.00
N115   N     0.31620   0.62000   0.93570   0.00000  Uiso   1.00
N116   N     0.33870   0.53740   0.00360   0.00000  Uiso   1.00
N117   N     0.35470   0.56880   0.29970   0.00000  Uiso   1.00
N118   N     0.98110   0.82780   0.01790   0.00000  Uiso   1.00
N119   N     0.99540   0.51080   0.04170   0.00000  Uiso   1.00
N120   N     0.37050   0.92640   0.15330   0.00000  Uiso   1.00
O121   O     0.10450   0.58840   0.46630   0.00000  Uiso   1.00
O122   O     0.18270   0.73980   0.40720   0.00000  Uiso   1.00
O123   O     0.60220   0.57890   0.48240   0.00000  Uiso   1.00
O124   O     0.48210   0.72080   0.40430   0.00000  Uiso   1.00
O125   O     0.65750   0.05490   0.25170   0.00000  Uiso   1.00
O126   O     0.89240   0.06800   0.26280   0.00000  Uiso   1.00
O127   O     0.82690   0.00480   0.12800   0.00000  Uiso   1.00
O128   O     0.15550   0.95570   0.11560   0.00000  Uiso   1.00
S129   S     0.79716   0.01440   0.23383   0.00000  Uiso   1.00
Cd130  Cd    0.33866   0.59565   0.46326   0.00000  Uiso   1.00
Cd131  Cd    0.00000   0.00000   0.00000   0.00000  Uiso   1.00
loop_
_geom_bond_atom_site_label_1
_geom_bond_atom_site_label_2
_geom_bond_distance
_geom_bond_site_symmetry_2
_ccdc_geom_bond_type
C1     C2      1.395   .     S
C1     C8      1.393   .     S
C1     C10     1.505   1_455 S
C2     H3      0.930   1_455 S
C2     C4      1.392   .     S
H3     C2      0.930   1_655 S
C4     C5      1.388   .     S
C4     S64     1.773   1_545 S
C5     H6      0.931   .     S
C5     C7      1.394   .     S
C7     C11     1.496   .     S
C7     C8      1.398   .     S
C8     H9      0.929   .     S
C10    C1      1.505   1_655 S
C10    O56     1.256   .     S
C10    O57     1.256   .     S
C11    O58     1.257   .     S
C11    O59     1.264   .     S
C12    H13     0.930   .     S
C12    C14     1.386   .     S
C12    N49     1.332   .     S
C14    H15     0.930   .     S
C14    C16     1.389   .     S
C16    C17     1.393   .     S
C16    N50     1.435   .     S
C17    H18     0.930   .     S
C17    C19     1.379   .     S
C19    H20     0.930   .     S
C19    N49     1.343   .     S
C21    C22     1.389   .     S
C21    C28     1.378   .     S
C21    N51     1.435   .     S
C22    H23     0.930   .     S
C22    C24     1.385   .     S
C24    H25     0.930   .     S
C24    N52     1.342   .     S
C26    H27     0.930   .     S
C26    C28     1.389   .     S
C26    N52     1.332   .     S
C28    H29     0.930   .     S
C30    H31     0.930   1_455 S
C30    C32     1.384   1_455 S
C30    N53     1.335   .     S
H31    C30     0.930   1_655 S
C32    C30     1.384   1_655 S
C32    H33     0.929   .     S
C32    C34     1.384   1_655 S
C34    C32     1.384   1_455 S
C34    C35     1.382   1_556 S
C34    N54     1.450   .     S
C35    C34     1.382   1_554 S
C35    H36     0.930   .     S
C35    C37     1.386   .     S
C37    H38     0.930   .     S
C37    N53     1.342   1_554 S
C39    H40     0.960   .     S
C39    H41     0.960   .     S
C39    H42     0.960   1_545 S
C39    N55     1.466   .     S
H42    C39     0.960   1_565 S
C43    H44     0.960   .     S
C43    H45     0.961   .     S
C43    H46     0.960   .     S
C43    N55     1.465   .     S
C47    H48     0.930   .     S
C47    O63     1.251   .     S
C47    N55     1.318   .     S
N49    Cd65    2.327   .     S
N50    N51     1.249   1_554 S
N51    N50     1.249   1_556 S
N52    Cd65    2.345   .     S
N53    Cd131   2.318   1_556 S
N53    C37     1.342   1_556 S
N54    N119    1.244   1_456 S
O56    Cd65    2.385   .     S
O57    Cd65    2.349   .     S
O58    Cd65    2.690   .     S
O58    Cd130   2.293   .     S
O59    Cd65    2.295   .     S
O60    S64     1.461   .     S
O61    S64     1.444   .     S
O62    S64     1.475   .     S
O62    Cd131   2.316   1_566 S
O63    Cd131   2.275   1_656 S
S64    C4      1.773   1_565 S
Cd65   O123    2.293   .     S
C66    C67     1.395   .     S
C66    C73     1.393   .     S
C66    C75     1.505   1_655 S
C67    H68     0.930   1_655 S
C67    C69     1.392   .     S
H68    C67     0.930   1_455 S
C69    C70     1.388   .     S
C69    S129    1.773   1_565 S
C70    H71     0.931   .     S
C70    C72     1.394   .     S
C72    C76     1.496   .     S
C72    C73     1.398   .     S
C73    H74     0.929   .     S
C75    C66     1.505   1_455 S
C75    O121    1.256   .     S
C75    O122    1.256   .     S
C76    O123    1.257   .     S
C76    O124    1.264   .     S
C77    H78     0.930   .     S
C77    C79     1.386   .     S
C77    N114    1.332   .     S
C79    H80     0.930   .     S
C79    C81     1.389   .     S
C81    C82     1.393   .     S
C81    N115    1.435   .     S
C82    H83     0.930   .     S
C82    C84     1.379   .     S
C84    H85     0.930   .     S
C84    N114    1.343   .     S
C86    C87     1.389   .     S
C86    C93     1.378   .     S
C86    N116    1.435   .     S
C87    H88     0.930   .     S
C87    C89     1.385   .     S
C89    H90     0.930   .     S
C89    N117    1.342   .     S
C91    H92     0.930   .     S
C91    C93     1.389   .     S
C91    N117    1.332   .     S
C93    H94     0.930   .     S
C95    H96     0.930   1_655 S
C95    C97     1.384   1_655 S
C95    N118    1.335   .     S
H96    C95     0.930   1_455 S
C97    C95     1.384   1_455 S
C97    H98     0.929   .     S
C97    C99     1.384   1_455 S
C99    C97     1.384   1_655 S
C99    C100    1.382   1_554 S
C99    N119    1.450   .     S
C100   C99     1.382   1_556 S
C100   H101    0.930   .     S
C100   C102    1.386   .     S
C102   H103    0.930   .     S
C102   N118    1.342   1_556 S
C104   H105    0.960   .     S
C104   H106    0.960   .     S
C104   H107    0.960   1_565 S
C104   N120    1.466   .     S
H107   C104    0.960   1_545 S
C108   H109    0.960   .     S
C108   H110    0.961   .     S
C108   H111    0.960   .     S
C108   N120    1.465   .     S
C112   H113    0.930   .     S
C112   O128    1.251   .     S
C112   N120    1.318   .     S
N114   Cd130   2.327   .     S
N115   N116    1.249   1_556 S
N116   N115    1.249   1_554 S
N117   Cd130   2.345   .     S
N118   Cd131   2.318   1_665 S
N118   C102    1.342   1_554 S
N119   N54     1.244   1_654 S
O121   Cd130   2.385   .     S
O122   Cd130   2.349   .     S
O123   Cd130   2.690   .     S
O124   Cd130   2.295   .     S
O125   S129    1.461   .     S
O126   S129    1.444   .     S
O127   S129    1.475   .     S
O127   Cd131   2.316   1_655 S
O128   Cd131   2.275   1_565 S
S129   C69     1.773   1_545 S
Cd131  N53     2.318   1_554 S
Cd131  N118    2.318   1_445 S
Cd131  O127    2.316   1_455 S
Cd131  O62     2.316   1_544 S
Cd131  O128    2.275   1_545 S
Cd131  O63     2.275   1_454 S
