data_SOJSOC_FSR
_audit_creation_date              2024-06-11
_audit_creation_method            'Materials Studio'
_symmetry_space_group_name_H-M    'P1'
_symmetry_Int_Tables_number       1
_symmetry_cell_setting            triclinic
loop_
_symmetry_equiv_pos_as_xyz
  x,y,z
_cell_length_a                    14.6764
_cell_length_b                    8.3407
_cell_length_c                    16.8021
_cell_angle_alpha                 90.0000
_cell_angle_beta                  101.3970
_cell_angle_gamma                 90.0000
loop_
_atom_site_label
_atom_site_type_symbol
_atom_site_fract_x
_atom_site_fract_y
_atom_site_fract_z
_atom_site_U_iso_or_equiv
_atom_site_adp_type
_atom_site_occupancy
Zn1    Zn    0.61821   0.48838   0.56788   0.02089  Uani   1.00
S2     S     0.56827   0.62485   0.38828   0.02165  Uani   1.00
O3     O     0.58763   0.64180   0.48114   0.03409  Uani   1.00
O4     O     0.48028   0.52310   0.36758   0.03161  Uani   1.00
O5     O     0.54083   0.79360   0.35948   0.02393  Uani   1.00
O6     O     0.72872   0.55220   0.65023   0.02601  Uani   1.00
O7     O     0.65775   0.77460   0.67833   0.02945  Uani   1.00
N8     N     0.86113   0.76510   0.96613   0.02146  Uani   1.00
N9     N     0.87467   0.59120   0.77023   0.02376  Uani   1.00
H10    H     0.85890   0.49080   0.77940   0.03600  Uiso   1.00
H11    H     0.92180   0.62180   0.80920   0.03600  Uiso   1.00
H12    H     0.89170   0.59670   0.72230   0.03600  Uiso   1.00
N13    N     0.89271   0.54180   0.03332   0.02939  Uani   1.00
H14    H     0.91680   0.47570   0.07090   0.03500  Uiso   1.00
C15    C     0.72120   0.67570   0.69269   0.01963  Uani   1.00
C16    C     0.79423   0.69810   0.76999   0.01940  Uani   1.00
H17    H     0.81570   0.80960   0.77280   0.02300  Uiso   1.00
C18    C     0.74743   0.66510   0.84211   0.02217  Uani   1.00
H19    H     0.70620   0.75390   0.84700   0.02700  Uiso   1.00
H20    H     0.70930   0.56980   0.83010   0.02700  Uiso   1.00
C21    C     0.81093   0.64180   0.92194   0.02047  Uani   1.00
C22    C     0.83070   0.50450   0.96428   0.02899  Uani   1.00
H23    H     0.80650   0.40340   0.94920   0.03500  Uiso   1.00
C24    C     0.90950   0.69760   0.03237   0.02745  Uani   1.00
H25    H     0.94990   0.75230   0.07290   0.03300  Uiso   1.00
Zn26   Zn    0.11821   0.98838   0.56788   0.02089  Uani   1.00
S27    S     0.06827   0.12485   0.38828   0.02165  Uani   1.00
O28    O     0.08763   0.14180   0.48114   0.03409  Uani   1.00
O29    O     0.98028   0.02310   0.36758   0.03161  Uani   1.00
O30    O     0.04083   0.29360   0.35948   0.02393  Uani   1.00
O31    O     0.22872   0.05220   0.65023   0.02601  Uani   1.00
O32    O     0.15775   0.27460   0.67833   0.02945  Uani   1.00
N33    N     0.36113   0.26510   0.96613   0.02146  Uani   1.00
N34    N     0.37467   0.09120   0.77023   0.02376  Uani   1.00
H35    H     0.35890   0.99080   0.77940   0.03600  Uiso   1.00
H36    H     0.42180   0.12180   0.80920   0.03600  Uiso   1.00
H37    H     0.39170   0.09670   0.72230   0.03600  Uiso   1.00
N38    N     0.39271   0.04180   0.03332   0.02939  Uani   1.00
H39    H     0.41680   0.97570   0.07090   0.03500  Uiso   1.00
C40    C     0.22120   0.17570   0.69269   0.01963  Uani   1.00
C41    C     0.29423   0.19810   0.76999   0.01940  Uani   1.00
H42    H     0.31570   0.30960   0.77280   0.02300  Uiso   1.00
C43    C     0.24743   0.16510   0.84211   0.02217  Uani   1.00
H44    H     0.20620   0.25390   0.84700   0.02700  Uiso   1.00
H45    H     0.20930   0.06980   0.83010   0.02700  Uiso   1.00
C46    C     0.31093   0.14180   0.92194   0.02047  Uani   1.00
C47    C     0.33070   0.00450   0.96428   0.02899  Uani   1.00
H48    H     0.30650   0.90340   0.94920   0.03500  Uiso   1.00
C49    C     0.40950   0.19760   0.03237   0.02745  Uani   1.00
H50    H     0.44990   0.25230   0.07290   0.03300  Uiso   1.00
Zn51   Zn    0.38179   0.48838   0.93212   0.02089  Uani   1.00
S52    S     0.43173   0.62485   0.11172   0.02165  Uani   1.00
O53    O     0.41237   0.64180   0.01886   0.03409  Uani   1.00
O54    O     0.51972   0.52310   0.13242   0.03161  Uani   1.00
O55    O     0.45917   0.79360   0.14052   0.02393  Uani   1.00
O56    O     0.27128   0.55220   0.84977   0.02601  Uani   1.00
O57    O     0.34225   0.77460   0.82167   0.02945  Uani   1.00
N58    N     0.13887   0.76510   0.53387   0.02146  Uani   1.00
N59    N     0.12533   0.59120   0.72977   0.02376  Uani   1.00
H60    H     0.14110   0.49080   0.72060   0.03600  Uiso   1.00
H61    H     0.07820   0.62180   0.69080   0.03600  Uiso   1.00
H62    H     0.10830   0.59670   0.77770   0.03600  Uiso   1.00
N63    N     0.10729   0.54180   0.46668   0.02939  Uani   1.00
H64    H     0.08320   0.47570   0.42910   0.03500  Uiso   1.00
C65    C     0.27880   0.67570   0.80731   0.01963  Uani   1.00
C66    C     0.20577   0.69810   0.73001   0.01940  Uani   1.00
H67    H     0.18430   0.80960   0.72720   0.02300  Uiso   1.00
C68    C     0.25257   0.66510   0.65789   0.02217  Uani   1.00
H69    H     0.29380   0.75390   0.65300   0.02700  Uiso   1.00
H70    H     0.29070   0.56980   0.66990   0.02700  Uiso   1.00
C71    C     0.18907   0.64180   0.57806   0.02047  Uani   1.00
C72    C     0.16930   0.50450   0.53572   0.02899  Uani   1.00
H73    H     0.19350   0.40340   0.55080   0.03500  Uiso   1.00
C74    C     0.09050   0.69760   0.46763   0.02745  Uani   1.00
H75    H     0.05010   0.75230   0.42710   0.03300  Uiso   1.00
Zn76   Zn    0.88179   0.98838   0.93212   0.02089  Uani   1.00
S77    S     0.93173   0.12485   0.11172   0.02165  Uani   1.00
O78    O     0.91237   0.14180   0.01886   0.03409  Uani   1.00
O79    O     0.01972   0.02310   0.13242   0.03161  Uani   1.00
O80    O     0.95917   0.29360   0.14052   0.02393  Uani   1.00
O81    O     0.77128   0.05220   0.84977   0.02601  Uani   1.00
O82    O     0.84225   0.27460   0.82167   0.02945  Uani   1.00
N83    N     0.63887   0.26510   0.53387   0.02146  Uani   1.00
N84    N     0.62533   0.09120   0.72977   0.02376  Uani   1.00
H85    H     0.64110   0.99080   0.72060   0.03600  Uiso   1.00
H86    H     0.57820   0.12180   0.69080   0.03600  Uiso   1.00
H87    H     0.60830   0.09670   0.77770   0.03600  Uiso   1.00
N88    N     0.60729   0.04180   0.46668   0.02939  Uani   1.00
H89    H     0.58320   0.97570   0.42910   0.03500  Uiso   1.00
C90    C     0.77880   0.17570   0.80731   0.01963  Uani   1.00
C91    C     0.70577   0.19810   0.73001   0.01940  Uani   1.00
H92    H     0.68430   0.30960   0.72720   0.02300  Uiso   1.00
C93    C     0.75257   0.16510   0.65789   0.02217  Uani   1.00
H94    H     0.79380   0.25390   0.65300   0.02700  Uiso   1.00
H95    H     0.79070   0.06980   0.66990   0.02700  Uiso   1.00
C96    C     0.68907   0.14180   0.57806   0.02047  Uani   1.00
C97    C     0.66930   0.00450   0.53572   0.02899  Uani   1.00
H98    H     0.69350   0.90340   0.55080   0.03500  Uiso   1.00
C99    C     0.59050   0.19760   0.46763   0.02745  Uani   1.00
H100   H     0.55010   0.25230   0.42710   0.03300  Uiso   1.00
Zn101  Zn    0.38179   0.51162   0.43212   0.02089  Uani   1.00
S102   S     0.43173   0.37515   0.61172   0.02165  Uani   1.00
O103   O     0.41237   0.35820   0.51886   0.03409  Uani   1.00
O104   O     0.51972   0.47690   0.63242   0.03161  Uani   1.00
O105   O     0.45917   0.20640   0.64052   0.02393  Uani   1.00
O106   O     0.27128   0.44780   0.34977   0.02601  Uani   1.00
O107   O     0.34225   0.22540   0.32167   0.02945  Uani   1.00
N108   N     0.13887   0.23490   0.03387   0.02146  Uani   1.00
N109   N     0.12533   0.40880   0.22977   0.02376  Uani   1.00
H110   H     0.14110   0.50920   0.22060   0.03600  Uiso   1.00
H111   H     0.07820   0.37820   0.19080   0.03600  Uiso   1.00
H112   H     0.10830   0.40330   0.27770   0.03600  Uiso   1.00
N113   N     0.10729   0.45820   0.96668   0.02939  Uani   1.00
H114   H     0.08320   0.52430   0.92910   0.03500  Uiso   1.00
C115   C     0.27880   0.32430   0.30731   0.01963  Uani   1.00
C116   C     0.20577   0.30190   0.23001   0.01940  Uani   1.00
H117   H     0.18430   0.19040   0.22720   0.02300  Uiso   1.00
C118   C     0.25257   0.33490   0.15789   0.02217  Uani   1.00
H119   H     0.29380   0.24610   0.15300   0.02700  Uiso   1.00
H120   H     0.29070   0.43020   0.16990   0.02700  Uiso   1.00
C121   C     0.18907   0.35820   0.07806   0.02047  Uani   1.00
C122   C     0.16930   0.49550   0.03572   0.02899  Uani   1.00
H123   H     0.19350   0.59660   0.05080   0.03500  Uiso   1.00
C124   C     0.09050   0.30240   0.96763   0.02745  Uani   1.00
H125   H     0.05010   0.24770   0.92710   0.03300  Uiso   1.00
Zn126  Zn    0.88179   0.01162   0.43212   0.02089  Uani   1.00
S127   S     0.93173   0.87515   0.61172   0.02165  Uani   1.00
O128   O     0.91237   0.85820   0.51886   0.03409  Uani   1.00
O129   O     0.01972   0.97690   0.63242   0.03161  Uani   1.00
O130   O     0.95917   0.70640   0.64052   0.02393  Uani   1.00
O131   O     0.77128   0.94780   0.34977   0.02601  Uani   1.00
O132   O     0.84225   0.72540   0.32167   0.02945  Uani   1.00
N133   N     0.63887   0.73490   0.03387   0.02146  Uani   1.00
N134   N     0.62533   0.90880   0.22977   0.02376  Uani   1.00
H135   H     0.64110   0.00920   0.22060   0.03600  Uiso   1.00
H136   H     0.57820   0.87820   0.19080   0.03600  Uiso   1.00
H137   H     0.60830   0.90330   0.27770   0.03600  Uiso   1.00
N138   N     0.60729   0.95820   0.96668   0.02939  Uani   1.00
H139   H     0.58320   0.02430   0.92910   0.03500  Uiso   1.00
C140   C     0.77880   0.82430   0.30731   0.01963  Uani   1.00
C141   C     0.70577   0.80190   0.23001   0.01940  Uani   1.00
H142   H     0.68430   0.69040   0.22720   0.02300  Uiso   1.00
C143   C     0.75257   0.83490   0.15789   0.02217  Uani   1.00
H144   H     0.79380   0.74610   0.15300   0.02700  Uiso   1.00
H145   H     0.79070   0.93020   0.16990   0.02700  Uiso   1.00
C146   C     0.68907   0.85820   0.07806   0.02047  Uani   1.00
C147   C     0.66930   0.99550   0.03572   0.02899  Uani   1.00
H148   H     0.69350   0.09660   0.05080   0.03500  Uiso   1.00
C149   C     0.59050   0.80240   0.96763   0.02745  Uani   1.00
H150   H     0.55010   0.74770   0.92710   0.03300  Uiso   1.00
Zn151  Zn    0.61821   0.51162   0.06788   0.02089  Uani   1.00
S152   S     0.56827   0.37515   0.88828   0.02165  Uani   1.00
O153   O     0.58763   0.35820   0.98114   0.03409  Uani   1.00
O154   O     0.48028   0.47690   0.86758   0.03161  Uani   1.00
O155   O     0.54083   0.20640   0.85948   0.02393  Uani   1.00
O156   O     0.72872   0.44780   0.15023   0.02601  Uani   1.00
O157   O     0.65775   0.22540   0.17833   0.02945  Uani   1.00
N158   N     0.86113   0.23490   0.46613   0.02146  Uani   1.00
N159   N     0.87467   0.40880   0.27023   0.02376  Uani   1.00
H160   H     0.85890   0.50920   0.27940   0.03600  Uiso   1.00
H161   H     0.92180   0.37820   0.30920   0.03600  Uiso   1.00
H162   H     0.89170   0.40330   0.22230   0.03600  Uiso   1.00
N163   N     0.89271   0.45820   0.53332   0.02939  Uani   1.00
H164   H     0.91680   0.52430   0.57090   0.03500  Uiso   1.00
C165   C     0.72120   0.32430   0.19269   0.01963  Uani   1.00
C166   C     0.79423   0.30190   0.26999   0.01940  Uani   1.00
H167   H     0.81570   0.19040   0.27280   0.02300  Uiso   1.00
C168   C     0.74743   0.33490   0.34211   0.02217  Uani   1.00
H169   H     0.70620   0.24610   0.34700   0.02700  Uiso   1.00
H170   H     0.70930   0.43020   0.33010   0.02700  Uiso   1.00
C171   C     0.81093   0.35820   0.42194   0.02047  Uani   1.00
C172   C     0.83070   0.49550   0.46428   0.02899  Uani   1.00
H173   H     0.80650   0.59660   0.44920   0.03500  Uiso   1.00
C174   C     0.90950   0.30240   0.53237   0.02745  Uani   1.00
H175   H     0.94990   0.24770   0.57290   0.03300  Uiso   1.00
Zn176  Zn    0.11821   0.01162   0.06788   0.02089  Uani   1.00
S177   S     0.06827   0.87515   0.88828   0.02165  Uani   1.00
O178   O     0.08763   0.85820   0.98114   0.03409  Uani   1.00
O179   O     0.98028   0.97690   0.86758   0.03161  Uani   1.00
O180   O     0.04083   0.70640   0.85948   0.02393  Uani   1.00
O181   O     0.22872   0.94780   0.15023   0.02601  Uani   1.00
O182   O     0.15775   0.72540   0.17833   0.02945  Uani   1.00
N183   N     0.36113   0.73490   0.46613   0.02146  Uani   1.00
N184   N     0.37467   0.90880   0.27023   0.02376  Uani   1.00
H185   H     0.35890   0.00920   0.27940   0.03600  Uiso   1.00
H186   H     0.42180   0.87820   0.30920   0.03600  Uiso   1.00
H187   H     0.39170   0.90330   0.22230   0.03600  Uiso   1.00
N188   N     0.39271   0.95820   0.53332   0.02939  Uani   1.00
H189   H     0.41680   0.02430   0.57090   0.03500  Uiso   1.00
C190   C     0.22120   0.82430   0.19269   0.01963  Uani   1.00
C191   C     0.29423   0.80190   0.26999   0.01940  Uani   1.00
H192   H     0.31570   0.69040   0.27280   0.02300  Uiso   1.00
C193   C     0.24743   0.83490   0.34211   0.02217  Uani   1.00
H194   H     0.20620   0.74610   0.34700   0.02700  Uiso   1.00
H195   H     0.20930   0.93020   0.33010   0.02700  Uiso   1.00
C196   C     0.31093   0.85820   0.42194   0.02047  Uani   1.00
C197   C     0.33070   0.99550   0.46428   0.02899  Uani   1.00
H198   H     0.30650   0.09660   0.44920   0.03500  Uiso   1.00
C199   C     0.40950   0.80240   0.53237   0.02745  Uani   1.00
H200   H     0.44990   0.74770   0.57290   0.03300  Uiso   1.00
loop_
_atom_site_aniso_label
_atom_site_aniso_U_11
_atom_site_aniso_U_22
_atom_site_aniso_U_33
_atom_site_aniso_U_12
_atom_site_aniso_U_13
_atom_site_aniso_U_23
Zn1       0.02515   0.01761   0.01752   0.00141  -0.00159  -0.00039
S2        0.02270   0.02020   0.02200   0.00290   0.00430  -0.00000
O3        0.05110   0.02630   0.02000   0.00330  -0.00480   0.00670
O4        0.03680   0.02720   0.03270  -0.01160   0.01140  -0.00680
O5        0.02800   0.02130   0.02020  -0.00030  -0.00080   0.00370
O6        0.02680   0.02550   0.02210   0.00140  -0.00400  -0.00810
O7        0.03090   0.02460   0.02970   0.00710  -0.00170  -0.00050
N8        0.02820   0.02000   0.01580  -0.00250   0.00340   0.00200
N9        0.02170   0.02830   0.02000  -0.00110   0.00100  -0.00120
N13       0.03990   0.02790   0.01830   0.00310   0.00070   0.00960
C15       0.02280   0.01890   0.01720  -0.00650   0.00400  -0.00010
C16       0.02020   0.01780   0.01940  -0.00210   0.00200  -0.00180
C18       0.02090   0.02550   0.02000  -0.00370   0.00380  -0.00120
C21       0.02280   0.02070   0.01920  -0.00070   0.00730  -0.00100
C22       0.04410   0.01950   0.02330  -0.00540   0.00650  -0.00030
C24       0.03500   0.02520   0.02020  -0.00410   0.00070   0.00150
Zn26      0.02515   0.01761   0.01752   0.00141  -0.00159  -0.00039
S27       0.02270   0.02020   0.02200   0.00290   0.00430  -0.00000
O28       0.05110   0.02630   0.02000   0.00330  -0.00480   0.00670
O29       0.03680   0.02720   0.03270  -0.01160   0.01140  -0.00680
O30       0.02800   0.02130   0.02020  -0.00030  -0.00080   0.00370
O31       0.02680   0.02550   0.02210   0.00140  -0.00400  -0.00810
O32       0.03090   0.02460   0.02970   0.00710  -0.00170  -0.00050
N33       0.02820   0.02000   0.01580  -0.00250   0.00340   0.00200
N34       0.02170   0.02830   0.02000  -0.00110   0.00100  -0.00120
N38       0.03990   0.02790   0.01830   0.00310   0.00070   0.00960
C40       0.02280   0.01890   0.01720  -0.00650   0.00400  -0.00010
C41       0.02020   0.01780   0.01940  -0.00210   0.00200  -0.00180
C43       0.02090   0.02550   0.02000  -0.00370   0.00380  -0.00120
C46       0.02280   0.02070   0.01920  -0.00070   0.00730  -0.00100
C47       0.04410   0.01950   0.02330  -0.00540   0.00650  -0.00030
C49       0.03500   0.02520   0.02020  -0.00410   0.00070   0.00150
Zn51      0.02515   0.01761   0.01752  -0.00141  -0.00159   0.00039
S52       0.02270   0.02020   0.02200  -0.00290   0.00430   0.00000
O53       0.05110   0.02630   0.02000  -0.00330  -0.00480  -0.00670
O54       0.03680   0.02720   0.03270   0.01160   0.01140   0.00680
O55       0.02800   0.02130   0.02020   0.00030  -0.00080  -0.00370
O56       0.02680   0.02550   0.02210  -0.00140  -0.00400   0.00810
O57       0.03090   0.02460   0.02970  -0.00710  -0.00170   0.00050
N58       0.02820   0.02000   0.01580   0.00250   0.00340  -0.00200
N59       0.02170   0.02830   0.02000   0.00110   0.00100   0.00120
N63       0.03990   0.02790   0.01830  -0.00310   0.00070  -0.00960
C65       0.02280   0.01890   0.01720   0.00650   0.00400   0.00010
C66       0.02020   0.01780   0.01940   0.00210   0.00200   0.00180
C68       0.02090   0.02550   0.02000   0.00370   0.00380   0.00120
C71       0.02280   0.02070   0.01920   0.00070   0.00730   0.00100
C72       0.04410   0.01950   0.02330   0.00540   0.00650   0.00030
C74       0.03500   0.02520   0.02020   0.00410   0.00070  -0.00150
Zn76      0.02515   0.01761   0.01752  -0.00141  -0.00159   0.00039
S77       0.02270   0.02020   0.02200  -0.00290   0.00430   0.00000
O78       0.05110   0.02630   0.02000  -0.00330  -0.00480  -0.00670
O79       0.03680   0.02720   0.03270   0.01160   0.01140   0.00680
O80       0.02800   0.02130   0.02020   0.00030  -0.00080  -0.00370
O81       0.02680   0.02550   0.02210  -0.00140  -0.00400   0.00810
O82       0.03090   0.02460   0.02970  -0.00710  -0.00170   0.00050
N83       0.02820   0.02000   0.01580   0.00250   0.00340  -0.00200
N84       0.02170   0.02830   0.02000   0.00110   0.00100   0.00120
N88       0.03990   0.02790   0.01830  -0.00310   0.00070  -0.00960
C90       0.02280   0.01890   0.01720   0.00650   0.00400   0.00010
C91       0.02020   0.01780   0.01940   0.00210   0.00200   0.00180
C93       0.02090   0.02550   0.02000   0.00370   0.00380   0.00120
C96       0.02280   0.02070   0.01920   0.00070   0.00730   0.00100
C97       0.04410   0.01950   0.02330   0.00540   0.00650   0.00030
C99       0.03500   0.02520   0.02020   0.00410   0.00070  -0.00150
Zn101     0.02515   0.01761   0.01752   0.00141  -0.00159  -0.00039
S102      0.02270   0.02020   0.02200   0.00290   0.00430  -0.00000
O103      0.05110   0.02630   0.02000   0.00330  -0.00480   0.00670
O104      0.03680   0.02720   0.03270  -0.01160   0.01140  -0.00680
O105      0.02800   0.02130   0.02020  -0.00030  -0.00080   0.00370
O106      0.02680   0.02550   0.02210   0.00140  -0.00400  -0.00810
O107      0.03090   0.02460   0.02970   0.00710  -0.00170  -0.00050
N108      0.02820   0.02000   0.01580  -0.00250   0.00340   0.00200
N109      0.02170   0.02830   0.02000  -0.00110   0.00100  -0.00120
N113      0.03990   0.02790   0.01830   0.00310   0.00070   0.00960
C115      0.02280   0.01890   0.01720  -0.00650   0.00400  -0.00010
C116      0.02020   0.01780   0.01940  -0.00210   0.00200  -0.00180
C118      0.02090   0.02550   0.02000  -0.00370   0.00380  -0.00120
C121      0.02280   0.02070   0.01920  -0.00070   0.00730  -0.00100
C122      0.04410   0.01950   0.02330  -0.00540   0.00650  -0.00030
C124      0.03500   0.02520   0.02020  -0.00410   0.00070   0.00150
Zn126     0.02515   0.01761   0.01752   0.00141  -0.00159  -0.00039
S127      0.02270   0.02020   0.02200   0.00290   0.00430  -0.00000
O128      0.05110   0.02630   0.02000   0.00330  -0.00480   0.00670
O129      0.03680   0.02720   0.03270  -0.01160   0.01140  -0.00680
O130      0.02800   0.02130   0.02020  -0.00030  -0.00080   0.00370
O131      0.02680   0.02550   0.02210   0.00140  -0.00400  -0.00810
O132      0.03090   0.02460   0.02970   0.00710  -0.00170  -0.00050
N133      0.02820   0.02000   0.01580  -0.00250   0.00340   0.00200
N134      0.02170   0.02830   0.02000  -0.00110   0.00100  -0.00120
N138      0.03990   0.02790   0.01830   0.00310   0.00070   0.00960
C140      0.02280   0.01890   0.01720  -0.00650   0.00400  -0.00010
C141      0.02020   0.01780   0.01940  -0.00210   0.00200  -0.00180
C143      0.02090   0.02550   0.02000  -0.00370   0.00380  -0.00120
C146      0.02280   0.02070   0.01920  -0.00070   0.00730  -0.00100
C147      0.04410   0.01950   0.02330  -0.00540   0.00650  -0.00030
C149      0.03500   0.02520   0.02020  -0.00410   0.00070   0.00150
Zn151     0.02515   0.01761   0.01752  -0.00141  -0.00159   0.00039
S152      0.02270   0.02020   0.02200  -0.00290   0.00430   0.00000
O153      0.05110   0.02630   0.02000  -0.00330  -0.00480  -0.00670
O154      0.03680   0.02720   0.03270   0.01160   0.01140   0.00680
O155      0.02800   0.02130   0.02020   0.00030  -0.00080  -0.00370
O156      0.02680   0.02550   0.02210  -0.00140  -0.00400   0.00810
O157      0.03090   0.02460   0.02970  -0.00710  -0.00170   0.00050
N158      0.02820   0.02000   0.01580   0.00250   0.00340  -0.00200
N159      0.02170   0.02830   0.02000   0.00110   0.00100   0.00120
N163      0.03990   0.02790   0.01830  -0.00310   0.00070  -0.00960
C165      0.02280   0.01890   0.01720   0.00650   0.00400   0.00010
C166      0.02020   0.01780   0.01940   0.00210   0.00200   0.00180
C168      0.02090   0.02550   0.02000   0.00370   0.00380   0.00120
C171      0.02280   0.02070   0.01920   0.00070   0.00730   0.00100
C172      0.04410   0.01950   0.02330   0.00540   0.00650   0.00030
C174      0.03500   0.02520   0.02020   0.00410   0.00070  -0.00150
Zn176     0.02515   0.01761   0.01752  -0.00141  -0.00159   0.00039
S177      0.02270   0.02020   0.02200  -0.00290   0.00430   0.00000
O178      0.05110   0.02630   0.02000  -0.00330  -0.00480  -0.00670
O179      0.03680   0.02720   0.03270   0.01160   0.01140   0.00680
O180      0.02800   0.02130   0.02020   0.00030  -0.00080  -0.00370
O181      0.02680   0.02550   0.02210  -0.00140  -0.00400   0.00810
O182      0.03090   0.02460   0.02970  -0.00710  -0.00170   0.00050
N183      0.02820   0.02000   0.01580   0.00250   0.00340  -0.00200
N184      0.02170   0.02830   0.02000   0.00110   0.00100   0.00120
N188      0.03990   0.02790   0.01830  -0.00310   0.00070  -0.00960
C190      0.02280   0.01890   0.01720   0.00650   0.00400   0.00010
C191      0.02020   0.01780   0.01940   0.00210   0.00200   0.00180
C193      0.02090   0.02550   0.02000   0.00370   0.00380   0.00120
C196      0.02280   0.02070   0.01920   0.00070   0.00730   0.00100
C197      0.04410   0.01950   0.02330   0.00540   0.00650   0.00030
C199      0.03500   0.02520   0.02020   0.00410   0.00070  -0.00150
loop_
_geom_bond_atom_site_label_1
_geom_bond_atom_site_label_2
_geom_bond_distance
_geom_bond_site_symmetry_2
_ccdc_geom_bond_type
Zn1    O3      1.925   .     S
Zn1    O6      1.985   .     S
Zn1    O104    1.973   .     S
Zn1    N83     1.989   .     S
S2     O3      1.536   .     S
S2     O4      1.527   .     S
S2     O5      1.517   .     S
O4     Zn101   1.973   .     S
O6     C15     1.270   .     S
O7     C15     1.232   .     S
N8     C21     1.391   .     S
N8     C24     1.322   1_556 S
N8     Zn76    1.989   .     S
N9     H10     0.890   .     S
N9     H11     0.891   .     S
N9     H12     0.890   .     S
N9     C16     1.479   .     S
N13    H14     0.860   .     S
N13    C22     1.361   1_554 S
N13    C24     1.323   .     S
C15    C16     1.523   .     S
C16    H17     0.980   .     S
C16    C18     1.531   .     S
C18    H19     0.970   .     S
C18    H20     0.970   .     S
C18    C21     1.487   .     S
C21    C22     1.349   .     S
C22    N13     1.361   1_556 S
C22    H23     0.931   .     S
C24    N8      1.322   1_554 S
C24    H25     0.929   .     S
Zn26   O28     1.925   1_565 S
Zn26   O31     1.985   1_565 S
Zn26   O129    1.973   .     S
Zn26   N58     1.989   .     S
S27    O28     1.536   .     S
S27    O29     1.527   1_455 S
S27    O30     1.517   .     S
O28    Zn26    1.925   1_545 S
O29    S27     1.527   1_655 S
O29    Zn126   1.973   .     S
O31    Zn26    1.985   1_545 S
O31    C40     1.270   .     S
O32    C40     1.232   .     S
N33    C46     1.391   .     S
N33    C49     1.322   1_556 S
N33    Zn51    1.989   .     S
N34    H35     0.890   1_545 S
N34    H36     0.891   .     S
N34    H37     0.890   .     S
N34    C41     1.479   .     S
H35    N34     0.890   1_565 S
N38    H39     0.860   1_545 S
N38    C47     1.361   1_554 S
N38    C49     1.323   .     S
H39    N38     0.860   1_565 S
C40    C41     1.523   .     S
C41    H42     0.980   .     S
C41    C43     1.531   .     S
C43    H44     0.970   .     S
C43    H45     0.970   .     S
C43    C46     1.487   .     S
C46    C47     1.349   .     S
C47    N38     1.361   1_556 S
C47    H48     0.931   1_545 S
H48    C47     0.931   1_565 S
C49    N33     1.322   1_554 S
C49    H50     0.929   .     S
Zn51   O53     1.925   1_556 S
Zn51   O56     1.985   .     S
Zn51   O154    1.973   .     S
S52    O53     1.536   .     S
S52    O54     1.527   .     S
S52    O55     1.517   .     S
O53    Zn51    1.925   1_554 S
O54    Zn151   1.973   .     S
O56    C65     1.270   .     S
O57    C65     1.232   .     S
N58    C71     1.391   .     S
N58    C74     1.322   .     S
N59    H60     0.890   .     S
N59    H61     0.891   .     S
N59    H62     0.890   .     S
N59    C66     1.479   .     S
N63    H64     0.860   .     S
N63    C72     1.361   .     S
N63    C74     1.323   .     S
C65    C66     1.523   .     S
C66    H67     0.980   .     S
C66    C68     1.531   .     S
C68    H69     0.970   .     S
C68    H70     0.970   .     S
C68    C71     1.487   .     S
C71    C72     1.349   .     S
C72    H73     0.931   .     S
C74    H75     0.929   .     S
Zn76   O78     1.925   1_566 S
Zn76   O81     1.985   1_565 S
Zn76   O179    1.973   .     S
S77    O78     1.536   .     S
S77    O79     1.527   1_655 S
S77    O80     1.517   .     S
O78    Zn76    1.925   1_544 S
O79    S77     1.527   1_455 S
O79    Zn176   1.973   .     S
O81    Zn76    1.985   1_545 S
O81    C90     1.270   .     S
O82    C90     1.232   .     S
N83    C96     1.391   .     S
N83    C99     1.322   .     S
N84    H85     0.890   1_545 S
N84    H86     0.891   .     S
N84    H87     0.890   .     S
N84    C91     1.479   .     S
H85    N84     0.890   1_565 S
N88    H89     0.860   1_545 S
N88    C97     1.361   .     S
N88    C99     1.323   .     S
H89    N88     0.860   1_565 S
C90    C91     1.523   .     S
C91    H92     0.980   .     S
C91    C93     1.531   .     S
C93    H94     0.970   .     S
C93    H95     0.970   .     S
C93    C96     1.487   .     S
C96    C97     1.349   .     S
C97    H98     0.931   1_545 S
H98    C97     0.931   1_565 S
C99    H100    0.929   .     S
Zn101  O103    1.925   .     S
Zn101  O106    1.985   .     S
Zn101  N183    1.989   .     S
S102   O103    1.536   .     S
S102   O104    1.527   .     S
S102   O105    1.517   .     S
O106   C115    1.270   .     S
O107   C115    1.232   .     S
N108   C121    1.391   .     S
N108   C124    1.322   1_554 S
N108   Zn176   1.989   .     S
N109   H110    0.890   .     S
N109   H111    0.891   .     S
N109   H112    0.890   .     S
N109   C116    1.479   .     S
N113   H114    0.860   .     S
N113   C122    1.361   1_556 S
N113   C124    1.323   .     S
C115   C116    1.523   .     S
C116   H117    0.980   .     S
C116   C118    1.531   .     S
C118   H119    0.970   .     S
C118   H120    0.970   .     S
C118   C121    1.487   .     S
C121   C122    1.349   .     S
C122   N113    1.361   1_554 S
C122   H123    0.931   .     S
C124   N108    1.322   1_556 S
C124   H125    0.929   .     S
Zn126  O128    1.925   1_545 S
Zn126  O131    1.985   1_545 S
Zn126  N158    1.989   .     S
S127   O128    1.536   .     S
S127   O129    1.527   1_655 S
S127   O130    1.517   .     S
O128   Zn126   1.925   1_565 S
O129   S127    1.527   1_455 S
O131   Zn126   1.985   1_565 S
O131   C140    1.270   .     S
O132   C140    1.232   .     S
N133   C146    1.391   .     S
N133   C149    1.322   1_554 S
N133   Zn151   1.989   .     S
N134   H135    0.890   1_565 S
N134   H136    0.891   .     S
N134   H137    0.890   .     S
N134   C141    1.479   .     S
H135   N134    0.890   1_545 S
N138   H139    0.860   1_565 S
N138   C147    1.361   1_556 S
N138   C149    1.323   .     S
H139   N138    0.860   1_545 S
C140   C141    1.523   .     S
C141   H142    0.980   .     S
C141   C143    1.531   .     S
C143   H144    0.970   .     S
C143   H145    0.970   .     S
C143   C146    1.487   .     S
C146   C147    1.349   .     S
C147   N138    1.361   1_554 S
C147   H148    0.931   1_565 S
H148   C147    0.931   1_545 S
C149   N133    1.322   1_556 S
C149   H150    0.929   .     S
Zn151  O153    1.925   1_554 S
Zn151  O156    1.985   .     S
S152   O153    1.536   .     S
S152   O154    1.527   .     S
S152   O155    1.517   .     S
O153   Zn151   1.925   1_556 S
O156   C165    1.270   .     S
O157   C165    1.232   .     S
N158   C171    1.391   .     S
N158   C174    1.322   .     S
N159   H160    0.890   .     S
N159   H161    0.891   .     S
N159   H162    0.890   .     S
N159   C166    1.479   .     S
N163   H164    0.860   .     S
N163   C172    1.361   .     S
N163   C174    1.323   .     S
C165   C166    1.523   .     S
C166   H167    0.980   .     S
C166   C168    1.531   .     S
C168   H169    0.970   .     S
C168   H170    0.970   .     S
C168   C171    1.487   .     S
C171   C172    1.349   .     S
C172   H173    0.931   .     S
C174   H175    0.929   .     S
Zn176  O178    1.925   1_544 S
Zn176  O181    1.985   1_545 S
S177   O178    1.536   .     S
S177   O179    1.527   1_455 S
S177   O180    1.517   .     S
O178   Zn176   1.925   1_566 S
O179   S177    1.527   1_655 S
O181   Zn176   1.985   1_565 S
O181   C190    1.270   .     S
O182   C190    1.232   .     S
N183   C196    1.391   .     S
N183   C199    1.322   .     S
N184   H185    0.890   1_565 S
N184   H186    0.891   .     S
N184   H187    0.890   .     S
N184   C191    1.479   .     S
H185   N184    0.890   1_545 S
N188   H189    0.860   1_565 S
N188   C197    1.361   .     S
N188   C199    1.323   .     S
H189   N188    0.860   1_545 S
C190   C191    1.523   .     S
C191   H192    0.980   .     S
C191   C193    1.531   .     S
C193   H194    0.970   .     S
C193   H195    0.970   .     S
C193   C196    1.487   .     S
C196   C197    1.349   .     S
C197   H198    0.931   1_565 S
H198   C197    0.931   1_545 S
C199   H200    0.929   .     S
