data_SUQHUJ_FSR
_audit_creation_date              2024-06-11
_audit_creation_method            'Materials Studio'
_symmetry_space_group_name_H-M    'P1'
_symmetry_Int_Tables_number       1
_symmetry_cell_setting            triclinic
loop_
_symmetry_equiv_pos_as_xyz
  x,y,z
_cell_length_a                    13.9508
_cell_length_b                    13.9508
_cell_length_c                    22.4020
_cell_angle_alpha                 90.0000
_cell_angle_beta                  90.0000
_cell_angle_gamma                 120.0000
loop_
_atom_site_label
_atom_site_type_symbol
_atom_site_fract_x
_atom_site_fract_y
_atom_site_fract_z
_atom_site_U_iso_or_equiv
_atom_site_adp_type
_atom_site_occupancy
O1     O     0.43240   0.55510   0.09120   0.00000  Uiso   1.00
O2     O     0.24910   0.44050   0.10910   0.00000  Uiso   1.00
C3     C     0.33730   0.46860   0.08280   0.00000  Uiso   1.00
C4     C     0.32930   0.38860   0.03590   0.00000  Uiso   1.00
C5     C     0.25030   0.28960   0.02340   0.00000  Uiso   1.00
H6     H     0.18130   0.25170   0.04170   0.00000  Uiso   1.00
O7     O     0.09907   0.88843   0.42453   0.00000  Uiso   1.00
O8     O     0.91577   0.77383   0.44243   0.00000  Uiso   1.00
C9     C     0.00397   0.80193   0.41613   0.00000  Uiso   1.00
C10    C     0.99597   0.72193   0.36923   0.00000  Uiso   1.00
C11    C     0.91697   0.62293   0.35673   0.00000  Uiso   1.00
H12    H     0.84797   0.58503   0.37503   0.00000  Uiso   1.00
O13    O     0.76573   0.22177   0.75787   0.00000  Uiso   1.00
O14    O     0.58243   0.10717   0.77577   0.00000  Uiso   1.00
C15    C     0.67063   0.13527   0.74947   0.00000  Uiso   1.00
C16    C     0.66263   0.05527   0.70257   0.00000  Uiso   1.00
C17    C     0.58363   0.95627   0.69007   0.00000  Uiso   1.00
H18    H     0.51463   0.91837   0.70837   0.00000  Uiso   1.00
O19    O     0.44490   0.87730   0.09120   0.00000  Uiso   1.00
O20    O     0.55950   0.80860   0.10910   0.00000  Uiso   1.00
C21    C     0.53140   0.86870   0.08280   0.00000  Uiso   1.00
C22    C     0.61140   0.94070   0.03590   0.00000  Uiso   1.00
C23    C     0.71040   0.96070   0.02340   0.00000  Uiso   1.00
H24    H     0.74830   0.92960   0.04170   0.00000  Uiso   1.00
O25    O     0.11157   0.21063   0.42453   0.00000  Uiso   1.00
O26    O     0.22617   0.14193   0.44243   0.00000  Uiso   1.00
C27    C     0.19807   0.20203   0.41613   0.00000  Uiso   1.00
C28    C     0.27807   0.27403   0.36923   0.00000  Uiso   1.00
C29    C     0.37707   0.29403   0.35673   0.00000  Uiso   1.00
H30    H     0.41497   0.26293   0.37503   0.00000  Uiso   1.00
O31    O     0.77823   0.54397   0.75787   0.00000  Uiso   1.00
O32    O     0.89283   0.47527   0.77577   0.00000  Uiso   1.00
C33    C     0.86473   0.53537   0.74947   0.00000  Uiso   1.00
C34    C     0.94473   0.60737   0.70257   0.00000  Uiso   1.00
C35    C     0.04373   0.62737   0.69007   0.00000  Uiso   1.00
H36    H     0.08163   0.59627   0.70837   0.00000  Uiso   1.00
O37    O     0.12270   0.56760   0.09120   0.00000  Uiso   1.00
O38    O     0.19140   0.75090   0.10910   0.00000  Uiso   1.00
C39    C     0.13130   0.66270   0.08280   0.00000  Uiso   1.00
C40    C     0.05930   0.67070   0.03590   0.00000  Uiso   1.00
C41    C     0.03930   0.74970   0.02340   0.00000  Uiso   1.00
H42    H     0.07040   0.81870   0.04170   0.00000  Uiso   1.00
O43    O     0.78937   0.90093   0.42453   0.00000  Uiso   1.00
O44    O     0.85807   0.08423   0.44243   0.00000  Uiso   1.00
C45    C     0.79797   0.99603   0.41613   0.00000  Uiso   1.00
C46    C     0.72597   0.00403   0.36923   0.00000  Uiso   1.00
C47    C     0.70597   0.08303   0.35673   0.00000  Uiso   1.00
H48    H     0.73707   0.15203   0.37503   0.00000  Uiso   1.00
O49    O     0.45603   0.23427   0.75787   0.00000  Uiso   1.00
O50    O     0.52473   0.41757   0.77577   0.00000  Uiso   1.00
C51    C     0.46463   0.32937   0.74947   0.00000  Uiso   1.00
C52    C     0.39263   0.33737   0.70257   0.00000  Uiso   1.00
C53    C     0.37263   0.41637   0.69007   0.00000  Uiso   1.00
H54    H     0.40373   0.48537   0.70837   0.00000  Uiso   1.00
O55    O     0.55510   0.43240   0.90880   0.00000  Uiso   1.00
O56    O     0.44050   0.24910   0.89090   0.00000  Uiso   1.00
C57    C     0.46860   0.33730   0.91720   0.00000  Uiso   1.00
C58    C     0.38860   0.32930   0.96410   0.00000  Uiso   1.00
C59    C     0.28960   0.25030   0.97660   0.00000  Uiso   1.00
H60    H     0.25170   0.18130   0.95830   0.00000  Uiso   1.00
O61    O     0.22177   0.76573   0.24213   0.00000  Uiso   1.00
O62    O     0.10717   0.58243   0.22423   0.00000  Uiso   1.00
C63    C     0.13527   0.67063   0.25053   0.00000  Uiso   1.00
C64    C     0.05527   0.66263   0.29743   0.00000  Uiso   1.00
C65    C     0.95627   0.58363   0.30993   0.00000  Uiso   1.00
H66    H     0.91837   0.51463   0.29163   0.00000  Uiso   1.00
O67    O     0.88843   0.09907   0.57547   0.00000  Uiso   1.00
O68    O     0.77383   0.91577   0.55757   0.00000  Uiso   1.00
C69    C     0.80193   0.00397   0.58387   0.00000  Uiso   1.00
C70    C     0.72193   0.99597   0.63077   0.00000  Uiso   1.00
C71    C     0.62293   0.91697   0.64327   0.00000  Uiso   1.00
H72    H     0.58503   0.84797   0.62497   0.00000  Uiso   1.00
O73    O     0.87730   0.44490   0.90880   0.00000  Uiso   1.00
O74    O     0.80860   0.55950   0.89090   0.00000  Uiso   1.00
C75    C     0.86870   0.53140   0.91720   0.00000  Uiso   1.00
C76    C     0.94070   0.61140   0.96410   0.00000  Uiso   1.00
C77    C     0.96070   0.71040   0.97660   0.00000  Uiso   1.00
H78    H     0.92960   0.74830   0.95830   0.00000  Uiso   1.00
O79    O     0.54397   0.77823   0.24213   0.00000  Uiso   1.00
O80    O     0.47527   0.89283   0.22423   0.00000  Uiso   1.00
C81    C     0.53537   0.86473   0.25053   0.00000  Uiso   1.00
C82    C     0.60737   0.94473   0.29743   0.00000  Uiso   1.00
C83    C     0.62737   0.04373   0.30993   0.00000  Uiso   1.00
H84    H     0.59627   0.08163   0.29163   0.00000  Uiso   1.00
O85    O     0.21063   0.11157   0.57547   0.00000  Uiso   1.00
O86    O     0.14193   0.22617   0.55757   0.00000  Uiso   1.00
C87    C     0.20203   0.19807   0.58387   0.00000  Uiso   1.00
C88    C     0.27403   0.27807   0.63077   0.00000  Uiso   1.00
C89    C     0.29403   0.37707   0.64327   0.00000  Uiso   1.00
H90    H     0.26293   0.41497   0.62497   0.00000  Uiso   1.00
O91    O     0.56760   0.12270   0.90880   0.00000  Uiso   1.00
O92    O     0.75090   0.19140   0.89090   0.00000  Uiso   1.00
C93    C     0.66270   0.13130   0.91720   0.00000  Uiso   1.00
C94    C     0.67070   0.05930   0.96410   0.00000  Uiso   1.00
C95    C     0.74970   0.03930   0.97660   0.00000  Uiso   1.00
H96    H     0.81870   0.07040   0.95830   0.00000  Uiso   1.00
O97    O     0.23427   0.45603   0.24213   0.00000  Uiso   1.00
O98    O     0.41757   0.52473   0.22423   0.00000  Uiso   1.00
C99    C     0.32937   0.46463   0.25053   0.00000  Uiso   1.00
C100   C     0.33737   0.39263   0.29743   0.00000  Uiso   1.00
C101   C     0.41637   0.37263   0.30993   0.00000  Uiso   1.00
H102   H     0.48537   0.40373   0.29163   0.00000  Uiso   1.00
O103   O     0.90093   0.78937   0.57547   0.00000  Uiso   1.00
O104   O     0.08423   0.85807   0.55757   0.00000  Uiso   1.00
C105   C     0.99603   0.79797   0.58387   0.00000  Uiso   1.00
C106   C     0.00403   0.72597   0.63077   0.00000  Uiso   1.00
C107   C     0.08303   0.70597   0.64327   0.00000  Uiso   1.00
H108   H     0.15203   0.73707   0.62497   0.00000  Uiso   1.00
In109  In    0.47962   0.66667   0.16667   0.00000  Uiso   1.00
O110   O     0.62898   0.66667   0.16667   0.00000  Uiso   1.00
In111  In    0.14629   0.00000   0.50000   0.00000  Uiso   1.00
O112   O     0.29565   0.00000   0.50000   0.00000  Uiso   1.00
In113  In    0.33333   0.81296   0.16667   0.00000  Uiso   1.00
O114   O     0.33333   0.96232   0.16667   0.00000  Uiso   1.00
In115  In   -0.00000   0.14629   0.50000   0.00000  Uiso   1.00
O116   O    -0.00000   0.29565   0.50000   0.00000  Uiso   1.00
In117  In    0.18704   0.52038   0.16667   0.00000  Uiso   1.00
O118   O     0.03768   0.37102   0.16667   0.00000  Uiso   1.00
In119  In    0.85371   0.85371   0.50000   0.00000  Uiso   1.00
O120   O     0.70435   0.70435   0.50000   0.00000  Uiso   1.00
In121  In    0.66667   0.47962   0.83333   0.00000  Uiso   1.00
O122   O     0.66667   0.62898   0.83333   0.00000  Uiso   1.00
In123  In    0.81296   0.33333   0.83333   0.00000  Uiso   1.00
O124   O     0.96232   0.33333   0.83333   0.00000  Uiso   1.00
In125  In    0.52038   0.18704   0.83333   0.00000  Uiso   1.00
O126   O     0.37102   0.03768   0.83333   0.00000  Uiso   1.00
O127   O     0.42150   0.42150   0.00000   0.00000  Uiso   1.00
O128   O     0.08817   0.75483   0.33333   0.00000  Uiso   1.00
O129   O     0.75483   0.08817   0.66667   0.00000  Uiso   1.00
O130   O     0.57850  -0.00000   0.00000   0.00000  Uiso   1.00
O131   O     0.24517   0.33333   0.33333   0.00000  Uiso   1.00
O132   O     0.91183   0.66667   0.66667   0.00000  Uiso   1.00
O133   O     0.00000   0.57850   0.00000   0.00000  Uiso   1.00
O134   O     0.66667   0.91183   0.33333   0.00000  Uiso   1.00
O135   O     0.33333   0.24517   0.66667   0.00000  Uiso   1.00
O136   O     0.33333   0.66667   0.16667   0.00000  Uiso   1.00
O137   O     0.00000  -0.00000   0.50000   0.00000  Uiso   1.00
O138   O     0.66667   0.33333   0.83333   0.00000  Uiso   1.00
loop_
_geom_bond_atom_site_label_1
_geom_bond_atom_site_label_2
_geom_bond_distance
_geom_bond_site_symmetry_2
_ccdc_geom_bond_type
O1     In109   2.165   .     S
O1     C3      1.285   .     S
O2     C3      1.238   .     S
O2     In117   2.149   .     S
C3     C4      1.496   .     S
C4     O127    1.386   .     S
C4     C5      1.296   .     S
C5     H6      0.930   .     S
C5     C59     1.415   1_554 S
O7     In111   2.165   1_565 S
O7     C9      1.285   .     S
O8     C9      1.238   1_655 S
O8     In119   2.149   .     S
C9     O8      1.238   1_455 S
C9     C10     1.496   1_455 S
C10    O128    1.386   1_655 S
C10    C9      1.496   1_655 S
C10    C11     1.296   .     S
C11    H12     0.930   .     S
C11    C65     1.415   .     S
O13    In123   2.165   .     S
O13    C15     1.285   .     S
O14    C15     1.238   .     S
O14    In125   2.149   .     S
C15    C16     1.496   .     S
C16    O129    1.386   .     S
C16    C17     1.296   1_545 S
C17    C16     1.296   1_565 S
C17    H18     0.930   .     S
C17    C71     1.415   .     S
O19    In113   2.165   .     S
O19    C21     1.285   .     S
O20    C21     1.238   .     S
O20    In109   2.149   .     S
C21    C22     1.496   .     S
C22    O130    1.386   1_565 S
C22    C23     1.296   .     S
C23    H24     0.930   .     S
C23    C95     1.415   1_564 S
O25    In115   2.165   .     S
O25    C27     1.285   .     S
O26    C27     1.238   .     S
O26    In111   2.149   .     S
C27    C28     1.496   .     S
C28    O131    1.386   .     S
C28    C29     1.296   .     S
C29    H30     0.930   .     S
C29    C101    1.415   .     S
O31    In121   2.165   .     S
O31    C33     1.285   .     S
O32    C33     1.238   .     S
O32    In123   2.149   .     S
C33    C34     1.496   .     S
C34    O132    1.386   .     S
C34    C35     1.296   1_655 S
C35    C34     1.296   1_455 S
C35    H36     0.930   .     S
C35    C107    1.415   .     S
O37    In117   2.165   .     S
O37    C39     1.285   .     S
O38    C39     1.238   .     S
O38    In113   2.149   .     S
C39    C40     1.496   .     S
C40    O133    1.386   .     S
C40    C41     1.296   .     S
C41    H42     0.930   .     S
C41    C77     1.415   1_454 S
O43    In119   2.165   .     S
O43    C45     1.285   .     S
O44    C45     1.238   1_545 S
O44    In115   2.149   1_655 S
C45    O44     1.238   1_565 S
C45    C46     1.496   1_565 S
C46    O134    1.386   1_545 S
C46    C45     1.496   1_545 S
C46    C47     1.296   .     S
C47    H48     0.930   .     S
C47    C83     1.415   .     S
O49    In125   2.165   .     S
O49    C51     1.285   .     S
O50    C51     1.238   .     S
O50    In121   2.149   .     S
C51    C52     1.496   .     S
C52    O135    1.386   .     S
C52    C53     1.296   .     S
C53    H54     0.930   .     S
C53    C89     1.415   .     S
O55    In121   2.165   .     S
O55    C57     1.285   .     S
O56    C57     1.238   .     S
O56    In125   2.149   .     S
C57    C58     1.496   .     S
C58    O127    1.386   1_556 S
C58    C59     1.296   .     S
C59    H60     0.930   .     S
C59    C5      1.415   1_556 S
O61    In113   2.165   .     S
O61    C63     1.285   .     S
O62    C63     1.238   .     S
O62    In117   2.149   .     S
C63    C64     1.496   .     S
C64    O128    1.386   .     S
C64    C65     1.296   1_455 S
C65    C64     1.296   1_655 S
C65    H66     0.930   .     S
O67    In115   2.165   1_655 S
O67    C69     1.285   .     S
O68    C69     1.238   1_565 S
O68    In119   2.149   .     S
C69    O68     1.238   1_545 S
C69    C70     1.496   1_545 S
C70    O129    1.386   1_565 S
C70    C69     1.496   1_565 S
C70    C71     1.296   .     S
C71    H72     0.930   .     S
O73    In123   2.165   .     S
O73    C75     1.285   .     S
O74    C75     1.238   .     S
O74    In121   2.149   .     S
C75    C76     1.496   .     S
C76    O133    1.386   1_656 S
C76    C77     1.296   .     S
C77    H78     0.930   .     S
C77    C41     1.415   1_656 S
O79    In109   2.165   .     S
O79    C81     1.285   .     S
O80    C81     1.238   .     S
O80    In113   2.149   .     S
C81    C82     1.496   .     S
C82    O134    1.386   .     S
C82    C83     1.296   1_565 S
C83    C82     1.296   1_545 S
C83    H84     0.930   .     S
O85    In111   2.165   .     S
O85    C87     1.285   .     S
O86    C87     1.238   .     S
O86    In115   2.149   .     S
C87    C88     1.496   .     S
C88    O135    1.386   .     S
C88    C89     1.296   .     S
C89    H90     0.930   .     S
O91    In125   2.165   .     S
O91    C93     1.285   .     S
O92    C93     1.238   .     S
O92    In123   2.149   .     S
C93    C94     1.496   .     S
C94    O130    1.386   1_556 S
C94    C95     1.296   .     S
C95    H96     0.930   .     S
C95    C23     1.415   1_546 S
O97    In117   2.165   .     S
O97    C99     1.285   .     S
O98    C99     1.238   .     S
O98    In109   2.149   .     S
C99    C100    1.496   .     S
C100   O131    1.386   .     S
C100   C101    1.296   .     S
C101   H102    0.930   .     S
O103   In119   2.165   .     S
O103   C105    1.285   .     S
O104   C105    1.238   1_455 S
O104   In111   2.149   1_565 S
C105   O104    1.238   1_655 S
C105   C106    1.496   1_655 S
C106   O132    1.386   1_455 S
C106   C105    1.496   1_455 S
C106   C107    1.296   .     S
C107   H108    0.930   .     S
In109  O110    2.084   .     S
In109  O136    2.041   .     S
In111  O112    2.084   .     S
In111  O7      2.165   1_545 S
In111  O137    2.041   .     S
In111  O104    2.149   1_545 S
In113  O114    2.084   .     S
In113  O136    2.041   .     S
In115  O116    2.084   .     S
In115  O67     2.165   1_455 S
In115  O137    2.041   .     S
In115  O44     2.149   1_455 S
In117  O118    2.084   .     S
In117  O136    2.041   .     S
In119  O120    2.084   .     S
In119  O137    2.041   1_665 S
In121  O122    2.084   .     S
In121  O138    2.041   .     S
In123  O124    2.084   .     S
In123  O138    2.041   .     S
In125  O126    2.084   .     S
In125  O138    2.041   .     S
O127   C58     1.386   1_554 S
O128   C10     1.386   1_455 S
O129   C70     1.386   1_545 S
O130   C22     1.386   1_545 S
O130   C94     1.386   1_554 S
O132   C106    1.386   1_655 S
O133   C76     1.386   1_454 S
O134   C46     1.386   1_565 S
O137   In119   2.041   1_445 S
