data_TECTUS_FSR
_audit_creation_date              2024-06-11
_audit_creation_method            'Materials Studio'
_symmetry_space_group_name_H-M    'P1'
_symmetry_Int_Tables_number       1
_symmetry_cell_setting            triclinic
loop_
_symmetry_equiv_pos_as_xyz
  x,y,z
_cell_length_a                    16.5520
_cell_length_b                    10.9610
_cell_length_c                    18.6910
_cell_angle_alpha                 90.0000
_cell_angle_beta                  111.5140
_cell_angle_gamma                 90.0000
loop_
_atom_site_label
_atom_site_type_symbol
_atom_site_fract_x
_atom_site_fract_y
_atom_site_fract_z
_atom_site_U_iso_or_equiv
_atom_site_adp_type
_atom_site_occupancy
Ca1    Ca    0.14554   0.59582   0.95128   0.00000  Uiso   1.00
O2     O     0.00100   0.60540   0.83852   0.00000  Uiso   1.00
O3     O     0.00891   0.69990   0.94497   0.00000  Uiso   1.00
O4     O     0.64477   0.97910   0.82848   0.00000  Uiso   1.00
O5     O     0.76107   0.97750   0.93467   0.00000  Uiso   1.00
O6     O     0.70040   0.89580   0.58424   0.00000  Uiso   1.00
O7     O     0.08190   0.41220   0.97034   0.00000  Uiso   1.00
H8     H     0.05760   0.39310   0.99350   0.00000  Uiso   1.00
H9     H     0.05630   0.37880   0.92730   0.00000  Uiso   1.00
O10    O     0.99634   0.29520   0.82975   0.00000  Uiso   1.00
O11    O     0.80619   0.76580   0.59022   0.00000  Uiso   1.00
N12    N     0.05870   0.11690   0.87820   0.00000  Uiso   1.00
C13    C     0.86460   0.75750   0.74973   0.00000  Uiso   1.00
H14    H     0.89530   0.71510   0.72480   0.00000  Uiso   1.00
C15    C     0.89140   0.75240   0.82923   0.00000  Uiso   1.00
C16    C     0.77186   0.88250   0.82413   0.00000  Uiso   1.00
C17    C     0.97170   0.68070   0.87370   0.00000  Uiso   1.00
C18    C     0.84596   0.81590   0.86663   0.00000  Uiso   1.00
H19    H     0.86480   0.81400   0.92000   0.00000  Uiso   1.00
C20    C     0.72330   0.95030   0.86538   0.00000  Uiso   1.00
C21    C     0.76410   0.82900   0.62064   0.00000  Uiso   1.00
C22    C     0.74520   0.88720   0.74475   0.00000  Uiso   1.00
H23    H     0.69590   0.93150   0.71640   0.00000  Uiso   1.00
C24    C     0.79190   0.82590   0.70707   0.00000  Uiso   1.00
C25    C     0.99080   0.18690   0.85060   0.00000  Uiso   1.00
C26    C     0.90460   0.13910   0.84670   0.00000  Uiso   1.00
H27    H     0.90420   0.13200   0.89770   0.00000  Uiso   1.00
H28    H     0.89480   0.06030   0.82250   0.00000  Uiso   1.00
H29    H     0.85960   0.19410   0.81720   0.00000  Uiso   1.00
C30    C     0.14310   0.16020   0.88270   0.00000  Uiso   1.00
H31    H     0.13600   0.21740   0.84190   0.00000  Uiso   1.00
H32    H     0.17750   0.09240   0.87770   0.00000  Uiso   1.00
H33    H     0.17190   0.19950   0.93140   0.00000  Uiso   1.00
C34    C     0.05520   0.99180   0.90640   0.00000  Uiso   1.00
H35    H     0.00380   0.98260   0.91830   0.00000  Uiso   1.00
H36    H     0.10550   0.97740   0.95190   0.00000  Uiso   1.00
H37    H     0.05400   0.93410   0.86740   0.00000  Uiso   1.00
Ca38   Ca    0.64554   0.09582   0.95128   0.00000  Uiso   1.00
O39    O     0.50100   0.10540   0.83852   0.00000  Uiso   1.00
O40    O     0.50891   0.19990   0.94497   0.00000  Uiso   1.00
O41    O     0.14477   0.47910   0.82848   0.00000  Uiso   1.00
O42    O     0.26107   0.47750   0.93467   0.00000  Uiso   1.00
O43    O     0.20040   0.39580   0.58424   0.00000  Uiso   1.00
O44    O     0.58190   0.91220   0.97034   0.00000  Uiso   1.00
H45    H     0.55760   0.89310   0.99350   0.00000  Uiso   1.00
H46    H     0.55630   0.87880   0.92730   0.00000  Uiso   1.00
O47    O     0.49634   0.79520   0.82975   0.00000  Uiso   1.00
O48    O     0.30619   0.26580   0.59022   0.00000  Uiso   1.00
N49    N     0.55870   0.61690   0.87820   0.00000  Uiso   1.00
C50    C     0.36460   0.25750   0.74973   0.00000  Uiso   1.00
H51    H     0.39530   0.21510   0.72480   0.00000  Uiso   1.00
C52    C     0.39140   0.25240   0.82923   0.00000  Uiso   1.00
C53    C     0.27186   0.38250   0.82413   0.00000  Uiso   1.00
C54    C     0.47170   0.18070   0.87370   0.00000  Uiso   1.00
C55    C     0.34596   0.31590   0.86663   0.00000  Uiso   1.00
H56    H     0.36480   0.31400   0.92000   0.00000  Uiso   1.00
C57    C     0.22330   0.45030   0.86538   0.00000  Uiso   1.00
C58    C     0.26410   0.32900   0.62064   0.00000  Uiso   1.00
C59    C     0.24520   0.38720   0.74475   0.00000  Uiso   1.00
H60    H     0.19590   0.43150   0.71640   0.00000  Uiso   1.00
C61    C     0.29190   0.32590   0.70707   0.00000  Uiso   1.00
C62    C     0.49080   0.68690   0.85060   0.00000  Uiso   1.00
C63    C     0.40460   0.63910   0.84670   0.00000  Uiso   1.00
H64    H     0.40420   0.63200   0.89770   0.00000  Uiso   1.00
H65    H     0.39480   0.56030   0.82250   0.00000  Uiso   1.00
H66    H     0.35960   0.69410   0.81720   0.00000  Uiso   1.00
C67    C     0.64310   0.66020   0.88270   0.00000  Uiso   1.00
H68    H     0.63600   0.71740   0.84190   0.00000  Uiso   1.00
H69    H     0.67750   0.59240   0.87770   0.00000  Uiso   1.00
H70    H     0.67190   0.69950   0.93140   0.00000  Uiso   1.00
C71    C     0.55520   0.49180   0.90640   0.00000  Uiso   1.00
H72    H     0.50380   0.48260   0.91830   0.00000  Uiso   1.00
H73    H     0.60550   0.47740   0.95190   0.00000  Uiso   1.00
H74    H     0.55400   0.43410   0.86740   0.00000  Uiso   1.00
Ca75   Ca    0.85446   0.59582   0.54872   0.00000  Uiso   1.00
O76    O     0.99900   0.60540   0.66148   0.00000  Uiso   1.00
O77    O     0.99109   0.69990   0.55503   0.00000  Uiso   1.00
O78    O     0.35523   0.97910   0.67152   0.00000  Uiso   1.00
O79    O     0.23893   0.97750   0.56533   0.00000  Uiso   1.00
O80    O     0.29960   0.89580   0.91576   0.00000  Uiso   1.00
O81    O     0.91810   0.41220   0.52966   0.00000  Uiso   1.00
H82    H     0.94240   0.39310   0.50650   0.00000  Uiso   1.00
H83    H     0.94370   0.37880   0.57270   0.00000  Uiso   1.00
O84    O     0.00366   0.29520   0.67025   0.00000  Uiso   1.00
O85    O     0.19381   0.76580   0.90978   0.00000  Uiso   1.00
N86    N     0.94130   0.11690   0.62180   0.00000  Uiso   1.00
C87    C     0.13540   0.75750   0.75027   0.00000  Uiso   1.00
H88    H     0.10470   0.71510   0.77520   0.00000  Uiso   1.00
C89    C     0.10860   0.75240   0.67077   0.00000  Uiso   1.00
C90    C     0.22814   0.88250   0.67587   0.00000  Uiso   1.00
C91    C     0.02830   0.68070   0.62630   0.00000  Uiso   1.00
C92    C     0.15404   0.81590   0.63337   0.00000  Uiso   1.00
H93    H     0.13520   0.81400   0.58000   0.00000  Uiso   1.00
C94    C     0.27670   0.95030   0.63462   0.00000  Uiso   1.00
C95    C     0.23590   0.82900   0.87936   0.00000  Uiso   1.00
C96    C     0.25480   0.88720   0.75525   0.00000  Uiso   1.00
H97    H     0.30410   0.93150   0.78360   0.00000  Uiso   1.00
C98    C     0.20810   0.82590   0.79293   0.00000  Uiso   1.00
C99    C     0.00920   0.18690   0.64940   0.00000  Uiso   1.00
C100   C     0.09540   0.13910   0.65330   0.00000  Uiso   1.00
H101   H     0.09580   0.13200   0.60230   0.00000  Uiso   1.00
H102   H     0.10520   0.06030   0.67750   0.00000  Uiso   1.00
H103   H     0.14040   0.19410   0.68280   0.00000  Uiso   1.00
C104   C     0.85690   0.16020   0.61730   0.00000  Uiso   1.00
H105   H     0.86400   0.21740   0.65810   0.00000  Uiso   1.00
H106   H     0.82250   0.09240   0.62230   0.00000  Uiso   1.00
H107   H     0.82810   0.19950   0.56860   0.00000  Uiso   1.00
C108   C     0.94480   0.99180   0.59360   0.00000  Uiso   1.00
H109   H     0.99620   0.98260   0.58170   0.00000  Uiso   1.00
H110   H     0.89450   0.97740   0.54810   0.00000  Uiso   1.00
H111   H     0.94600   0.93410   0.63260   0.00000  Uiso   1.00
Ca112  Ca    0.35446   0.09582   0.54872   0.00000  Uiso   1.00
O113   O     0.49900   0.10540   0.66148   0.00000  Uiso   1.00
O114   O     0.49109   0.19990   0.55503   0.00000  Uiso   1.00
O115   O     0.85523   0.47910   0.67152   0.00000  Uiso   1.00
O116   O     0.73893   0.47750   0.56533   0.00000  Uiso   1.00
O117   O     0.79960   0.39580   0.91576   0.00000  Uiso   1.00
O118   O     0.41810   0.91220   0.52966   0.00000  Uiso   1.00
H119   H     0.44240   0.89310   0.50650   0.00000  Uiso   1.00
H120   H     0.44370   0.87880   0.57270   0.00000  Uiso   1.00
O121   O     0.50366   0.79520   0.67025   0.00000  Uiso   1.00
O122   O     0.69381   0.26580   0.90978   0.00000  Uiso   1.00
N123   N     0.44130   0.61690   0.62180   0.00000  Uiso   1.00
C124   C     0.63540   0.25750   0.75027   0.00000  Uiso   1.00
H125   H     0.60470   0.21510   0.77520   0.00000  Uiso   1.00
C126   C     0.60860   0.25240   0.67077   0.00000  Uiso   1.00
C127   C     0.72814   0.38250   0.67587   0.00000  Uiso   1.00
C128   C     0.52830   0.18070   0.62630   0.00000  Uiso   1.00
C129   C     0.65404   0.31590   0.63337   0.00000  Uiso   1.00
H130   H     0.63520   0.31400   0.58000   0.00000  Uiso   1.00
C131   C     0.77670   0.45030   0.63462   0.00000  Uiso   1.00
C132   C     0.73590   0.32900   0.87936   0.00000  Uiso   1.00
C133   C     0.75480   0.38720   0.75525   0.00000  Uiso   1.00
H134   H     0.80410   0.43150   0.78360   0.00000  Uiso   1.00
C135   C     0.70810   0.32590   0.79293   0.00000  Uiso   1.00
C136   C     0.50920   0.68690   0.64940   0.00000  Uiso   1.00
C137   C     0.59540   0.63910   0.65330   0.00000  Uiso   1.00
H138   H     0.59580   0.63200   0.60230   0.00000  Uiso   1.00
H139   H     0.60520   0.56030   0.67750   0.00000  Uiso   1.00
H140   H     0.64040   0.69410   0.68280   0.00000  Uiso   1.00
C141   C     0.35690   0.66020   0.61730   0.00000  Uiso   1.00
H142   H     0.36400   0.71740   0.65810   0.00000  Uiso   1.00
H143   H     0.32250   0.59240   0.62230   0.00000  Uiso   1.00
H144   H     0.32810   0.69950   0.56860   0.00000  Uiso   1.00
C145   C     0.44480   0.49180   0.59360   0.00000  Uiso   1.00
H146   H     0.49620   0.48260   0.58170   0.00000  Uiso   1.00
H147   H     0.39450   0.47740   0.54810   0.00000  Uiso   1.00
H148   H     0.44600   0.43410   0.63260   0.00000  Uiso   1.00
Ca149  Ca    0.85446   0.40418   0.04872   0.00000  Uiso   1.00
O150   O     0.99900   0.39460   0.16148   0.00000  Uiso   1.00
O151   O     0.99109   0.30010   0.05503   0.00000  Uiso   1.00
O152   O     0.35523   0.02090   0.17152   0.00000  Uiso   1.00
O153   O     0.23893   0.02250   0.06533   0.00000  Uiso   1.00
O154   O     0.29960   0.10420   0.41576   0.00000  Uiso   1.00
O155   O     0.91810   0.58780   0.02966   0.00000  Uiso   1.00
H156   H     0.94240   0.60690   0.00650   0.00000  Uiso   1.00
H157   H     0.94370   0.62120   0.07270   0.00000  Uiso   1.00
O158   O     0.00366   0.70480   0.17025   0.00000  Uiso   1.00
O159   O     0.19381   0.23420   0.40978   0.00000  Uiso   1.00
N160   N     0.94130   0.88310   0.12180   0.00000  Uiso   1.00
C161   C     0.13540   0.24250   0.25027   0.00000  Uiso   1.00
H162   H     0.10470   0.28490   0.27520   0.00000  Uiso   1.00
C163   C     0.10860   0.24760   0.17077   0.00000  Uiso   1.00
C164   C     0.22814   0.11750   0.17587   0.00000  Uiso   1.00
C165   C     0.02830   0.31930   0.12630   0.00000  Uiso   1.00
C166   C     0.15404   0.18410   0.13337   0.00000  Uiso   1.00
H167   H     0.13520   0.18600   0.08000   0.00000  Uiso   1.00
C168   C     0.27670   0.04970   0.13462   0.00000  Uiso   1.00
C169   C     0.23590   0.17100   0.37936   0.00000  Uiso   1.00
C170   C     0.25480   0.11280   0.25525   0.00000  Uiso   1.00
H171   H     0.30410   0.06850   0.28360   0.00000  Uiso   1.00
C172   C     0.20810   0.17410   0.29293   0.00000  Uiso   1.00
C173   C     0.00920   0.81310   0.14940   0.00000  Uiso   1.00
C174   C     0.09540   0.86090   0.15330   0.00000  Uiso   1.00
H175   H     0.09580   0.86800   0.10230   0.00000  Uiso   1.00
H176   H     0.10520   0.93970   0.17750   0.00000  Uiso   1.00
H177   H     0.14040   0.80590   0.18280   0.00000  Uiso   1.00
C178   C     0.85690   0.83980   0.11730   0.00000  Uiso   1.00
H179   H     0.86400   0.78260   0.15810   0.00000  Uiso   1.00
H180   H     0.82250   0.90760   0.12230   0.00000  Uiso   1.00
H181   H     0.82810   0.80050   0.06860   0.00000  Uiso   1.00
C182   C     0.94480   0.00820   0.09360   0.00000  Uiso   1.00
H183   H     0.99620   0.01740   0.08170   0.00000  Uiso   1.00
H184   H     0.89450   0.02260   0.04810   0.00000  Uiso   1.00
H185   H     0.94600   0.06590   0.13260   0.00000  Uiso   1.00
Ca186  Ca    0.35446   0.90418   0.04872   0.00000  Uiso   1.00
O187   O     0.49900   0.89460   0.16148   0.00000  Uiso   1.00
O188   O     0.49109   0.80010   0.05503   0.00000  Uiso   1.00
O189   O     0.85523   0.52090   0.17152   0.00000  Uiso   1.00
O190   O     0.73893   0.52250   0.06533   0.00000  Uiso   1.00
O191   O     0.79960   0.60420   0.41576   0.00000  Uiso   1.00
O192   O     0.41810   0.08780   0.02966   0.00000  Uiso   1.00
H193   H     0.44240   0.10690   0.00650   0.00000  Uiso   1.00
H194   H     0.44370   0.12120   0.07270   0.00000  Uiso   1.00
O195   O     0.50366   0.20480   0.17025   0.00000  Uiso   1.00
O196   O     0.69381   0.73420   0.40978   0.00000  Uiso   1.00
N197   N     0.44130   0.38310   0.12180   0.00000  Uiso   1.00
C198   C     0.63540   0.74250   0.25027   0.00000  Uiso   1.00
H199   H     0.60470   0.78490   0.27520   0.00000  Uiso   1.00
C200   C     0.60860   0.74760   0.17077   0.00000  Uiso   1.00
C201   C     0.72814   0.61750   0.17587   0.00000  Uiso   1.00
C202   C     0.52830   0.81930   0.12630   0.00000  Uiso   1.00
C203   C     0.65404   0.68410   0.13337   0.00000  Uiso   1.00
H204   H     0.63520   0.68600   0.08000   0.00000  Uiso   1.00
C205   C     0.77670   0.54970   0.13462   0.00000  Uiso   1.00
C206   C     0.73590   0.67100   0.37936   0.00000  Uiso   1.00
C207   C     0.75480   0.61280   0.25525   0.00000  Uiso   1.00
H208   H     0.80410   0.56850   0.28360   0.00000  Uiso   1.00
C209   C     0.70810   0.67410   0.29293   0.00000  Uiso   1.00
C210   C     0.50920   0.31310   0.14940   0.00000  Uiso   1.00
C211   C     0.59540   0.36090   0.15330   0.00000  Uiso   1.00
H212   H     0.59580   0.36800   0.10230   0.00000  Uiso   1.00
H213   H     0.60520   0.43970   0.17750   0.00000  Uiso   1.00
H214   H     0.64040   0.30590   0.18280   0.00000  Uiso   1.00
C215   C     0.35690   0.33980   0.11730   0.00000  Uiso   1.00
H216   H     0.36400   0.28260   0.15810   0.00000  Uiso   1.00
H217   H     0.32250   0.40760   0.12230   0.00000  Uiso   1.00
H218   H     0.32810   0.30050   0.06860   0.00000  Uiso   1.00
C219   C     0.44480   0.50820   0.09360   0.00000  Uiso   1.00
H220   H     0.49620   0.51740   0.08170   0.00000  Uiso   1.00
H221   H     0.39450   0.52260   0.04810   0.00000  Uiso   1.00
H222   H     0.44600   0.56590   0.13260   0.00000  Uiso   1.00
Ca223  Ca    0.14554   0.40418   0.45128   0.00000  Uiso   1.00
O224   O     0.00100   0.39460   0.33852   0.00000  Uiso   1.00
O225   O     0.00891   0.30010   0.44497   0.00000  Uiso   1.00
O226   O     0.64477   0.02090   0.32848   0.00000  Uiso   1.00
O227   O     0.76107   0.02250   0.43467   0.00000  Uiso   1.00
O228   O     0.70040   0.10420   0.08424   0.00000  Uiso   1.00
O229   O     0.08190   0.58780   0.47034   0.00000  Uiso   1.00
H230   H     0.05760   0.60690   0.49350   0.00000  Uiso   1.00
H231   H     0.05630   0.62120   0.42730   0.00000  Uiso   1.00
O232   O     0.99634   0.70480   0.32975   0.00000  Uiso   1.00
O233   O     0.80619   0.23420   0.09022   0.00000  Uiso   1.00
N234   N     0.05870   0.88310   0.37820   0.00000  Uiso   1.00
C235   C     0.86460   0.24250   0.24973   0.00000  Uiso   1.00
H236   H     0.89530   0.28490   0.22480   0.00000  Uiso   1.00
C237   C     0.89140   0.24760   0.32923   0.00000  Uiso   1.00
C238   C     0.77186   0.11750   0.32413   0.00000  Uiso   1.00
C239   C     0.97170   0.31930   0.37370   0.00000  Uiso   1.00
C240   C     0.84596   0.18410   0.36663   0.00000  Uiso   1.00
H241   H     0.86480   0.18600   0.42000   0.00000  Uiso   1.00
C242   C     0.72330   0.04970   0.36538   0.00000  Uiso   1.00
C243   C     0.76410   0.17100   0.12064   0.00000  Uiso   1.00
C244   C     0.74520   0.11280   0.24475   0.00000  Uiso   1.00
H245   H     0.69590   0.06850   0.21640   0.00000  Uiso   1.00
C246   C     0.79190   0.17410   0.20707   0.00000  Uiso   1.00
C247   C     0.99080   0.81310   0.35060   0.00000  Uiso   1.00
C248   C     0.90460   0.86090   0.34670   0.00000  Uiso   1.00
H249   H     0.90420   0.86800   0.39770   0.00000  Uiso   1.00
H250   H     0.89480   0.93970   0.32250   0.00000  Uiso   1.00
H251   H     0.85960   0.80590   0.31720   0.00000  Uiso   1.00
C252   C     0.14310   0.83980   0.38270   0.00000  Uiso   1.00
H253   H     0.13600   0.78260   0.34190   0.00000  Uiso   1.00
H254   H     0.17750   0.90760   0.37770   0.00000  Uiso   1.00
H255   H     0.17190   0.80050   0.43140   0.00000  Uiso   1.00
C256   C     0.05520   0.00820   0.40640   0.00000  Uiso   1.00
H257   H     0.00380   0.01740   0.41830   0.00000  Uiso   1.00
H258   H     0.10550   0.02260   0.45190   0.00000  Uiso   1.00
H259   H     0.05400   0.06590   0.36740   0.00000  Uiso   1.00
Ca260  Ca    0.64554   0.90418   0.45128   0.00000  Uiso   1.00
O261   O     0.50100   0.89460   0.33852   0.00000  Uiso   1.00
O262   O     0.50891   0.80010   0.44497   0.00000  Uiso   1.00
O263   O     0.14477   0.52090   0.32848   0.00000  Uiso   1.00
O264   O     0.26107   0.52250   0.43467   0.00000  Uiso   1.00
O265   O     0.20040   0.60420   0.08424   0.00000  Uiso   1.00
O266   O     0.58190   0.08780   0.47034   0.00000  Uiso   1.00
H267   H     0.55760   0.10690   0.49350   0.00000  Uiso   1.00
H268   H     0.55630   0.12120   0.42730   0.00000  Uiso   1.00
O269   O     0.49634   0.20480   0.32975   0.00000  Uiso   1.00
O270   O     0.30619   0.73420   0.09022   0.00000  Uiso   1.00
N271   N     0.55870   0.38310   0.37820   0.00000  Uiso   1.00
C272   C     0.36460   0.74250   0.24973   0.00000  Uiso   1.00
H273   H     0.39530   0.78490   0.22480   0.00000  Uiso   1.00
C274   C     0.39140   0.74760   0.32923   0.00000  Uiso   1.00
C275   C     0.27186   0.61750   0.32413   0.00000  Uiso   1.00
C276   C     0.47170   0.81930   0.37370   0.00000  Uiso   1.00
C277   C     0.34596   0.68410   0.36663   0.00000  Uiso   1.00
H278   H     0.36480   0.68600   0.42000   0.00000  Uiso   1.00
C279   C     0.22330   0.54970   0.36538   0.00000  Uiso   1.00
C280   C     0.26410   0.67100   0.12064   0.00000  Uiso   1.00
C281   C     0.24520   0.61280   0.24475   0.00000  Uiso   1.00
H282   H     0.19590   0.56850   0.21640   0.00000  Uiso   1.00
C283   C     0.29190   0.67410   0.20707   0.00000  Uiso   1.00
C284   C     0.49080   0.31310   0.35060   0.00000  Uiso   1.00
C285   C     0.40460   0.36090   0.34670   0.00000  Uiso   1.00
H286   H     0.40420   0.36800   0.39770   0.00000  Uiso   1.00
H287   H     0.39480   0.43970   0.32250   0.00000  Uiso   1.00
H288   H     0.35960   0.30590   0.31720   0.00000  Uiso   1.00
C289   C     0.64310   0.33980   0.38270   0.00000  Uiso   1.00
H290   H     0.63600   0.28260   0.34190   0.00000  Uiso   1.00
H291   H     0.67750   0.40760   0.37770   0.00000  Uiso   1.00
H292   H     0.67190   0.30050   0.43140   0.00000  Uiso   1.00
C293   C     0.55520   0.50820   0.40640   0.00000  Uiso   1.00
H294   H     0.50380   0.51740   0.41830   0.00000  Uiso   1.00
H295   H     0.60550   0.52260   0.45190   0.00000  Uiso   1.00
H296   H     0.55400   0.56590   0.36740   0.00000  Uiso   1.00
Ca297  Ca    0.00000   0.45626   0.75000   0.00000  Uiso   1.00
Ca298  Ca    0.50000   0.95626   0.75000   0.00000  Uiso   1.00
Ca299  Ca    0.00000   0.54374   0.25000   0.00000  Uiso   1.00
Ca300  Ca    0.50000   0.04374   0.25000   0.00000  Uiso   1.00
loop_
_geom_bond_atom_site_label_1
_geom_bond_atom_site_label_2
_geom_bond_distance
_geom_bond_site_symmetry_2
_ccdc_geom_bond_type
Ca1    O2      2.545   .     S
Ca1    O3      2.497   .     S
Ca1    O7      2.359   .     S
Ca1    O42     2.423   .     S
Ca1    O265    2.314   1_556 S
Ca1    O85     2.273   .     S
Ca1    O41     2.624   .     S
O2     Ca297   2.322   .     S
O2     C17     1.258   1_455 S
O3     C17     1.263   1_455 S
O4     C20     1.268   .     S
O4     Ca298   2.319   .     S
O4     Ca38    2.624   1_565 S
O5     C20     1.250   .     S
O5     Ca38    2.423   1_565 S
O6     C21     1.259   .     S
O6     Ca260   2.314   .     S
O7     H8      0.722   .     S
O7     H9      0.843   .     S
O10    Ca297   2.326   1_655 S
O10    C25     1.263   .     S
O11    C21     1.257   .     S
O11    Ca75    2.273   .     S
N12    C25     1.301   1_455 S
N12    C30     1.448   .     S
N12    C34     1.478   1_545 S
C13    H14     0.930   .     S
C13    C15     1.387   .     S
C13    C24     1.394   .     S
C15    C18     1.387   .     S
C15    C17     1.505   .     S
C16    C18     1.398   .     S
C16    C20     1.499   .     S
C16    C22     1.385   .     S
C17    O2      1.258   1_655 S
C17    O3      1.263   1_655 S
C18    H19     0.930   .     S
C21    C24     1.509   .     S
C22    H23     0.930   .     S
C22    C24     1.394   .     S
C25    N12     1.301   1_655 S
C25    C26     1.496   .     S
C26    H27     0.959   .     S
C26    H28     0.961   .     S
C26    H29     0.960   .     S
C30    H31     0.961   .     S
C30    H32     0.961   .     S
C30    H33     0.961   .     S
C34    N12     1.478   1_565 S
C34    H35     0.960   .     S
C34    H36     0.960   .     S
C34    H37     0.960   .     S
Ca38   O39     2.545   .     S
Ca38   O40     2.497   .     S
Ca38   O44     2.359   1_545 S
Ca38   O5      2.423   1_545 S
Ca38   O228    2.314   1_556 S
Ca38   O122    2.273   .     S
Ca38   O4      2.624   1_545 S
O39    Ca298   2.322   1_545 S
O39    C54     1.258   .     S
O40    C54     1.263   .     S
O41    C57     1.268   .     S
O41    Ca297   2.319   .     S
O42    C57     1.250   .     S
O43    C58     1.259   .     S
O43    Ca223   2.314   .     S
O44    Ca38    2.359   1_565 S
O44    H45     0.722   .     S
O44    H46     0.843   .     S
O47    Ca298   2.326   .     S
O47    C62     1.263   .     S
O48    C58     1.257   .     S
O48    Ca112   2.273   .     S
N49    C62     1.301   .     S
N49    C67     1.448   .     S
N49    C71     1.478   .     S
C50    H51     0.930   .     S
C50    C52     1.387   .     S
C50    C61     1.394   .     S
C52    C55     1.387   .     S
C52    C54     1.505   .     S
C53    C55     1.398   .     S
C53    C57     1.499   .     S
C53    C59     1.385   .     S
C55    H56     0.930   .     S
C58    C61     1.509   .     S
C59    H60     0.930   .     S
C59    C61     1.394   .     S
C62    C63     1.496   .     S
C63    H64     0.959   .     S
C63    H65     0.961   .     S
C63    H66     0.960   .     S
C67    H68     0.961   .     S
C67    H69     0.961   .     S
C67    H70     0.961   .     S
C71    H72     0.960   .     S
C71    H73     0.960   .     S
C71    H74     0.960   .     S
Ca75   O76     2.545   .     S
Ca75   O77     2.497   .     S
Ca75   O81     2.359   .     S
Ca75   O116    2.423   .     S
Ca75   O191    2.314   .     S
Ca75   O115    2.624   .     S
O76    Ca297   2.322   1_655 S
O76    C91     1.258   1_655 S
O77    C91     1.263   1_655 S
O78    C94     1.268   .     S
O78    Ca298   2.319   .     S
O78    Ca112   2.624   1_565 S
O79    C94     1.250   .     S
O79    Ca112   2.423   1_565 S
O80    C95     1.259   .     S
O80    Ca186   2.314   1_556 S
O81    H82     0.722   .     S
O81    H83     0.843   .     S
O84    Ca297   2.326   .     S
O84    C99     1.263   .     S
O85    C95     1.257   .     S
N86    C99     1.301   1_655 S
N86    C104    1.448   .     S
N86    C108    1.478   1_545 S
C87    H88     0.930   .     S
C87    C89     1.387   .     S
C87    C98     1.394   .     S
C89    C92     1.387   .     S
C89    C91     1.505   .     S
C90    C92     1.398   .     S
C90    C94     1.499   .     S
C90    C96     1.385   .     S
C91    O76     1.258   1_455 S
C91    O77     1.263   1_455 S
C92    H93     0.930   .     S
C95    C98     1.509   .     S
C96    H97     0.930   .     S
C96    C98     1.394   .     S
C99    N86     1.301   1_455 S
C99    C100    1.496   .     S
C100   H101    0.959   .     S
C100   H102    0.961   .     S
C100   H103    0.960   .     S
C104   H105    0.961   .     S
C104   H106    0.961   .     S
C104   H107    0.961   .     S
C108   N86     1.478   1_565 S
C108   H109    0.960   .     S
C108   H110    0.960   .     S
C108   H111    0.960   .     S
Ca112  O113    2.545   .     S
Ca112  O114    2.497   .     S
Ca112  O118    2.359   1_545 S
Ca112  O79     2.423   1_545 S
Ca112  O154    2.314   .     S
Ca112  O78     2.624   1_545 S
O113   Ca298   2.322   1_545 S
O113   C128    1.258   .     S
O114   C128    1.263   .     S
O115   C131    1.268   .     S
O115   Ca297   2.319   1_655 S
O116   C131    1.250   .     S
O117   C132    1.259   .     S
O117   Ca149   2.314   1_556 S
O118   Ca112   2.359   1_565 S
O118   H119    0.722   .     S
O118   H120    0.843   .     S
O121   Ca298   2.326   .     S
O121   C136    1.263   .     S
O122   C132    1.257   .     S
N123   C136    1.301   .     S
N123   C141    1.448   .     S
N123   C145    1.478   .     S
C124   H125    0.930   .     S
C124   C126    1.387   .     S
C124   C135    1.394   .     S
C126   C129    1.387   .     S
C126   C128    1.505   .     S
C127   C129    1.398   .     S
C127   C131    1.499   .     S
C127   C133    1.385   .     S
C129   H130    0.930   .     S
C132   C135    1.509   .     S
C133   H134    0.930   .     S
C133   C135    1.394   .     S
C136   C137    1.496   .     S
C137   H138    0.959   .     S
C137   H139    0.961   .     S
C137   H140    0.960   .     S
C141   H142    0.961   .     S
C141   H143    0.961   .     S
C141   H144    0.961   .     S
C145   H146    0.960   .     S
C145   H147    0.960   .     S
C145   H148    0.960   .     S
Ca149  O150    2.545   .     S
Ca149  O151    2.497   .     S
Ca149  O155    2.359   .     S
Ca149  O190    2.423   .     S
Ca149  O117    2.314   1_554 S
Ca149  O233    2.273   .     S
Ca149  O189    2.624   .     S
O150   Ca299   2.322   1_655 S
O150   C165    1.258   1_655 S
O151   C165    1.263   1_655 S
O152   C168    1.268   .     S
O152   Ca300   2.319   .     S
O152   Ca186   2.624   1_545 S
O153   C168    1.250   .     S
O153   Ca186   2.423   1_545 S
O154   C169    1.259   .     S
O155   H156    0.722   .     S
O155   H157    0.843   .     S
O158   Ca299   2.326   .     S
O158   C173    1.263   .     S
O159   C169    1.257   .     S
O159   Ca223   2.273   .     S
N160   C173    1.301   1_655 S
N160   C178    1.448   .     S
N160   C182    1.478   1_565 S
C161   H162    0.930   .     S
C161   C163    1.387   .     S
C161   C172    1.394   .     S
C163   C166    1.387   .     S
C163   C165    1.505   .     S
C164   C166    1.398   .     S
C164   C168    1.499   .     S
C164   C170    1.385   .     S
C165   O150    1.258   1_455 S
C165   O151    1.263   1_455 S
C166   H167    0.930   .     S
C169   C172    1.509   .     S
C170   H171    0.930   .     S
C170   C172    1.394   .     S
C173   N160    1.301   1_455 S
C173   C174    1.496   .     S
C174   H175    0.959   .     S
C174   H176    0.961   .     S
C174   H177    0.960   .     S
C178   H179    0.961   .     S
C178   H180    0.961   .     S
C178   H181    0.961   .     S
C182   N160    1.478   1_545 S
C182   H183    0.960   .     S
C182   H184    0.960   .     S
C182   H185    0.960   .     S
Ca186  O187    2.545   .     S
Ca186  O188    2.497   .     S
Ca186  O192    2.359   1_565 S
Ca186  O153    2.423   1_565 S
Ca186  O80     2.314   1_554 S
Ca186  O270    2.273   .     S
Ca186  O152    2.624   1_565 S
O187   Ca300   2.322   1_565 S
O187   C202    1.258   .     S
O188   C202    1.263   .     S
O189   C205    1.268   .     S
O189   Ca299   2.319   1_655 S
O190   C205    1.250   .     S
O191   C206    1.259   .     S
O192   Ca186   2.359   1_545 S
O192   H193    0.722   .     S
O192   H194    0.843   .     S
O195   Ca300   2.326   .     S
O195   C210    1.263   .     S
O196   C206    1.257   .     S
O196   Ca260   2.273   .     S
N197   C210    1.301   .     S
N197   C215    1.448   .     S
N197   C219    1.478   .     S
C198   H199    0.930   .     S
C198   C200    1.387   .     S
C198   C209    1.394   .     S
C200   C203    1.387   .     S
C200   C202    1.505   .     S
C201   C203    1.398   .     S
C201   C205    1.499   .     S
C201   C207    1.385   .     S
C203   H204    0.930   .     S
C206   C209    1.509   .     S
C207   H208    0.930   .     S
C207   C209    1.394   .     S
C210   C211    1.496   .     S
C211   H212    0.959   .     S
C211   H213    0.961   .     S
C211   H214    0.960   .     S
C215   H216    0.961   .     S
C215   H217    0.961   .     S
C215   H218    0.961   .     S
C219   H220    0.960   .     S
C219   H221    0.960   .     S
C219   H222    0.960   .     S
Ca223  O224    2.545   .     S
Ca223  O225    2.497   .     S
Ca223  O229    2.359   .     S
Ca223  O264    2.423   .     S
Ca223  O263    2.624   .     S
O224   Ca299   2.322   .     S
O224   C239    1.258   1_455 S
O225   C239    1.263   1_455 S
O226   C242    1.268   .     S
O226   Ca300   2.319   .     S
O226   Ca260   2.624   1_545 S
O227   C242    1.250   .     S
O227   Ca260   2.423   1_545 S
O228   C243    1.259   .     S
O228   Ca38    2.314   1_554 S
O229   H230    0.722   .     S
O229   H231    0.843   .     S
O232   Ca299   2.326   1_655 S
O232   C247    1.263   .     S
O233   C243    1.257   .     S
N234   C247    1.301   1_455 S
N234   C252    1.448   .     S
N234   C256    1.478   1_565 S
C235   H236    0.930   .     S
C235   C237    1.387   .     S
C235   C246    1.394   .     S
C237   C240    1.387   .     S
C237   C239    1.505   .     S
C238   C240    1.398   .     S
C238   C242    1.499   .     S
C238   C244    1.385   .     S
C239   O224    1.258   1_655 S
C239   O225    1.263   1_655 S
C240   H241    0.930   .     S
C243   C246    1.509   .     S
C244   H245    0.930   .     S
C244   C246    1.394   .     S
C247   N234    1.301   1_655 S
C247   C248    1.496   .     S
C248   H249    0.959   .     S
C248   H250    0.961   .     S
C248   H251    0.960   .     S
C252   H253    0.961   .     S
C252   H254    0.961   .     S
C252   H255    0.961   .     S
C256   N234    1.478   1_545 S
C256   H257    0.960   .     S
C256   H258    0.960   .     S
C256   H259    0.960   .     S
Ca260  O261    2.545   .     S
Ca260  O262    2.497   .     S
Ca260  O266    2.359   1_565 S
Ca260  O227    2.423   1_565 S
Ca260  O226    2.624   1_565 S
O261   Ca300   2.322   1_565 S
O261   C276    1.258   .     S
O262   C276    1.263   .     S
O263   C279    1.268   .     S
O263   Ca299   2.319   .     S
O264   C279    1.250   .     S
O265   C280    1.259   .     S
O265   Ca1     2.314   1_554 S
O266   Ca260   2.359   1_545 S
O266   H267    0.722   .     S
O266   H268    0.843   .     S
O269   Ca300   2.326   .     S
O269   C284    1.263   .     S
O270   C280    1.257   .     S
N271   C284    1.301   .     S
N271   C289    1.448   .     S
N271   C293    1.478   .     S
C272   H273    0.930   .     S
C272   C274    1.387   .     S
C272   C283    1.394   .     S
C274   C277    1.387   .     S
C274   C276    1.505   .     S
C275   C277    1.398   .     S
C275   C279    1.499   .     S
C275   C281    1.385   .     S
C277   H278    0.930   .     S
C280   C283    1.509   .     S
C281   H282    0.930   .     S
C281   C283    1.394   .     S
C284   C285    1.496   .     S
C285   H286    0.959   .     S
C285   H287    0.961   .     S
C285   H288    0.960   .     S
C289   H290    0.961   .     S
C289   H291    0.961   .     S
C289   H292    0.961   .     S
C293   H294    0.960   .     S
C293   H295    0.960   .     S
C293   H296    0.960   .     S
Ca297  O76     2.322   1_455 S
Ca297  O10     2.326   1_455 S
Ca297  O115    2.319   1_455 S
Ca298  O39     2.322   1_565 S
Ca298  O113    2.322   1_565 S
Ca299  O150    2.322   1_455 S
Ca299  O232    2.326   1_455 S
Ca299  O189    2.319   1_455 S
Ca300  O187    2.322   1_545 S
Ca300  O261    2.322   1_545 S
