data_TECVAA_direct
_audit_creation_date              2024-06-11
_audit_creation_method            'Materials Studio'
_symmetry_space_group_name_H-M    'P1'
_symmetry_Int_Tables_number       1
_symmetry_cell_setting            triclinic
loop_
_symmetry_equiv_pos_as_xyz
  x,y,z
_cell_length_a                    16.2817
_cell_length_b                    13.5141
_cell_length_c                    15.7591
_cell_angle_alpha                 90.0000
_cell_angle_beta                  93.2540
_cell_angle_gamma                 90.0000
loop_
_atom_site_label
_atom_site_type_symbol
_atom_site_fract_x
_atom_site_fract_y
_atom_site_fract_z
_atom_site_U_iso_or_equiv
_atom_site_adp_type
_atom_site_occupancy
Ca1    Ca    0.84760   0.48647   0.71076   0.00000  Uiso   1.00
Ca2    Ca    0.89963   0.30074   0.52089   0.00000  Uiso   1.00
Ca3    Ca    0.91813   0.57158   0.92210   0.00000  Uiso   1.00
O4     O     0.96759   0.55049   0.77712   0.00000  Uiso   1.00
O5     O     0.92552   0.34603   0.66284   0.00000  Uiso   1.00
O6     O     0.84925   0.43976   0.84907   0.00000  Uiso   1.00
C7     C     0.01516   0.63137   0.77477   0.00000  Uiso   1.00
O8     O     0.01616   0.66914   0.84348   0.00000  Uiso   1.00
O9     O     0.01871   0.27498   0.59288   0.00000  Uiso   1.00
O10    O     0.15329   0.51816   0.96552   0.00000  Uiso   1.00
O11    O     0.15191   0.55811   0.42349   0.00000  Uiso   1.00
C12    C     0.00228   0.31812   0.66169   0.00000  Uiso   1.00
C13    C     0.18715   0.33000   0.86984   0.00000  Uiso   1.00
H14    H     0.23360   0.33713   0.92132   0.00000  Uiso   1.00
O15    O     0.02466   0.46248   0.97934   0.00000  Uiso   1.00
C16    C     0.06559   0.31973   0.73492   0.00000  Uiso   1.00
C17    C     0.13950   0.26371   0.73342   0.00000  Uiso   1.00
H18    H     0.15117   0.21937   0.67841   0.00000  Uiso   1.00
O19    O     0.27151   0.12320   0.74765   0.00000  Uiso   1.00
N20    N     0.77923   0.29432   0.86216   0.00000  Uiso   1.00
C21    C     0.12490   0.73817   0.70641   0.00000  Uiso   1.00
H22    H     0.12521   0.78866   0.75960   0.00000  Uiso   1.00
C23    C     0.06484   0.59906   0.62995   0.00000  Uiso   1.00
H24    H     0.02116   0.53873   0.62635   0.00000  Uiso   1.00
C25    C     0.10040   0.45985   0.93811   0.00000  Uiso   1.00
C26    C     0.24503   0.83378   0.65248   0.00000  Uiso   1.00
C27    C     0.18118   0.68536   0.57399   0.00000  Uiso   1.00
H28    H     0.22729   0.69102   0.52808   0.00000  Uiso   1.00
O29    O     0.33111   0.82731   0.64928   0.00000  Uiso   1.00
C30    C     0.06783   0.65903   0.70254   0.00000  Uiso   1.00
C31    C     0.11664   0.54005   0.49223   0.00000  Uiso   1.00
C32    C     0.05107   0.36970   0.80940   0.00000  Uiso   1.00
H33    H     0.99056   0.39553   0.81969   0.00000  Uiso   1.00
C34    C     0.11967   0.61196   0.56440   0.00000  Uiso   1.00
C35    C     0.19756   0.26093   0.80391   0.00000  Uiso   1.00
O36    O     0.31663   0.18190   0.87431   0.00000  Uiso   1.00
C37    C     0.18364   0.75071   0.64349   0.00000  Uiso   1.00
O38    O     0.22301   0.91402   0.67693   0.00000  Uiso   1.00
C39    C     0.11453   0.38718   0.87073   0.00000  Uiso   1.00
C40    C     0.26622   0.18498   0.80876   0.00000  Uiso   1.00
O41    O     0.07658   0.46082   0.50225   0.00000  Uiso   1.00
C42    C     0.79602   0.39145   0.88237   0.00000  Uiso   1.00
H43    H     0.76500   0.42432   0.93410   0.00000  Uiso   1.00
O44    O     0.87029   0.13397   0.53312   0.00000  Uiso   1.00
O45    O     0.78873   0.33243   0.42934   0.00000  Uiso   1.00
C46    C     0.71439   0.24382   0.90619   0.00000  Uiso   1.00
N47    N     0.69855   0.38323   0.32494   0.00000  Uiso   1.00
C48    C     0.72037   0.32393   0.39387   0.00000  Uiso   1.00
H49    H     0.67944   0.26571   0.41218   0.00000  Uiso   1.00
C50    C     0.74918   0.46794   0.30104   0.00000  Uiso   1.00
C51    C     0.62692   0.35846   0.26861   0.00000  Uiso   1.00
C52    C     0.83953   0.23067   0.82333   0.00000  Uiso   1.00
N53    N     0.96394   0.03223   0.61243   0.00000  Uiso   1.00
C54    C     0.89035   0.05196   0.56047   0.00000  Uiso   1.00
H55    H     0.85085   0.99064   0.54187   0.00000  Uiso   1.00
C56    C     0.98618   0.09221   0.68679   0.00000  Uiso   1.00
H57    H     0.24015   0.71434   0.96791   0.00000  Uiso   1.00
H58    H     0.18976   0.68053   0.86752   0.00000  Uiso   1.00
H59    H     0.16268   0.79514   0.91763   0.00000  Uiso   1.00
H60    H     0.39314   0.77282   0.80375   0.00000  Uiso   1.00
H61    H     0.31028   0.69083   0.76799   0.00000  Uiso   1.00
H62    H     0.36281   0.67443   0.87016   0.00000  Uiso   1.00
H63    H     0.25016   0.97406   0.23084   0.00000  Uiso   1.00
H64    H     0.31375   0.96059   0.32652   0.00000  Uiso   1.00
H65    H     0.22313   0.03762   0.32474   0.00000  Uiso   1.00
H66    H     0.09114   0.79567   0.29326   0.00000  Uiso   1.00
H67    H     0.14600   0.84079   0.20431   0.00000  Uiso   1.00
H68    H     0.08794   0.92358   0.25916   0.00000  Uiso   1.00
C69    C     0.50758   0.43805   0.60352   0.00000  Uiso   1.00
H70    H     0.47584   0.40457   0.33363   0.00000  Uiso   1.00
H71    H     0.43372   0.45065   0.42677   0.00000  Uiso   1.00
H72    H     0.53082   0.38345   0.43344   0.00000  Uiso   1.00
H73    H     0.50708   0.54740   0.25440   0.00000  Uiso   1.00
H74    H     0.56107   0.64934   0.30340   0.00000  Uiso   1.00
H75    H     0.45277   0.62256   0.32180   0.00000  Uiso   1.00
Ca76   Ca    0.34760   0.98647   0.71076   0.00000  Uiso   1.00
Ca77   Ca    0.39963   0.80074   0.52089   0.00000  Uiso   1.00
Ca78   Ca    0.41813   0.07158   0.92210   0.00000  Uiso   1.00
O79    O     0.46759   0.05049   0.77712   0.00000  Uiso   1.00
O80    O     0.42552   0.84603   0.66284   0.00000  Uiso   1.00
O81    O     0.34925   0.93976   0.84907   0.00000  Uiso   1.00
C82    C     0.51516   0.13137   0.77477   0.00000  Uiso   1.00
O83    O     0.51616   0.16914   0.84348   0.00000  Uiso   1.00
O84    O     0.51871   0.77498   0.59288   0.00000  Uiso   1.00
O85    O     0.65329   0.01816   0.96552   0.00000  Uiso   1.00
O86    O     0.65191   0.05811   0.42349   0.00000  Uiso   1.00
C87    C     0.50228   0.81812   0.66169   0.00000  Uiso   1.00
C88    C     0.68715   0.83000   0.86984   0.00000  Uiso   1.00
H89    H     0.73360   0.83713   0.92132   0.00000  Uiso   1.00
O90    O     0.52466   0.96248   0.97934   0.00000  Uiso   1.00
C91    C     0.56559   0.81973   0.73492   0.00000  Uiso   1.00
C92    C     0.63950   0.76371   0.73342   0.00000  Uiso   1.00
H93    H     0.65117   0.71937   0.67841   0.00000  Uiso   1.00
O94    O     0.77151   0.62320   0.74765   0.00000  Uiso   1.00
N95    N     0.27923   0.79432   0.86216   0.00000  Uiso   1.00
C96    C     0.62490   0.23817   0.70641   0.00000  Uiso   1.00
H97    H     0.62521   0.28866   0.75960   0.00000  Uiso   1.00
C98    C     0.56484   0.09906   0.62995   0.00000  Uiso   1.00
H99    H     0.52116   0.03873   0.62635   0.00000  Uiso   1.00
C100   C     0.60040   0.95985   0.93811   0.00000  Uiso   1.00
C101   C     0.74503   0.33378   0.65248   0.00000  Uiso   1.00
C102   C     0.68118   0.18536   0.57399   0.00000  Uiso   1.00
H103   H     0.72729   0.19102   0.52808   0.00000  Uiso   1.00
O104   O     0.83111   0.32731   0.64928   0.00000  Uiso   1.00
C105   C     0.56783   0.15903   0.70254   0.00000  Uiso   1.00
C106   C     0.61664   0.04005   0.49223   0.00000  Uiso   1.00
C107   C     0.55107   0.86970   0.80940   0.00000  Uiso   1.00
H108   H     0.49056   0.89553   0.81969   0.00000  Uiso   1.00
C109   C     0.61967   0.11196   0.56440   0.00000  Uiso   1.00
C110   C     0.69756   0.76093   0.80391   0.00000  Uiso   1.00
O111   O     0.81663   0.68190   0.87431   0.00000  Uiso   1.00
C112   C     0.68364   0.25071   0.64349   0.00000  Uiso   1.00
O113   O     0.72301   0.41402   0.67693   0.00000  Uiso   1.00
C114   C     0.61453   0.88718   0.87073   0.00000  Uiso   1.00
C115   C     0.76622   0.68498   0.80876   0.00000  Uiso   1.00
O116   O     0.57658   0.96082   0.50225   0.00000  Uiso   1.00
C117   C     0.29602   0.89145   0.88237   0.00000  Uiso   1.00
H118   H     0.26500   0.92432   0.93410   0.00000  Uiso   1.00
O119   O     0.37029   0.63397   0.53312   0.00000  Uiso   1.00
O120   O     0.28873   0.83243   0.42934   0.00000  Uiso   1.00
C121   C     0.21439   0.74382   0.90619   0.00000  Uiso   1.00
N122   N     0.19855   0.88323   0.32494   0.00000  Uiso   1.00
C123   C     0.22037   0.82393   0.39387   0.00000  Uiso   1.00
H124   H     0.17944   0.76571   0.41218   0.00000  Uiso   1.00
C125   C     0.24918   0.96794   0.30104   0.00000  Uiso   1.00
C126   C     0.12692   0.85846   0.26861   0.00000  Uiso   1.00
C127   C     0.33953   0.73067   0.82333   0.00000  Uiso   1.00
N128   N     0.46394   0.53223   0.61243   0.00000  Uiso   1.00
C129   C     0.39035   0.55196   0.56047   0.00000  Uiso   1.00
H130   H     0.35085   0.49064   0.54187   0.00000  Uiso   1.00
C131   C     0.48618   0.59221   0.68679   0.00000  Uiso   1.00
H132   H     0.74015   0.21434   0.96791   0.00000  Uiso   1.00
H133   H     0.68976   0.18053   0.86752   0.00000  Uiso   1.00
H134   H     0.66268   0.29514   0.91763   0.00000  Uiso   1.00
H135   H     0.89314   0.27282   0.80375   0.00000  Uiso   1.00
H136   H     0.81028   0.19083   0.76799   0.00000  Uiso   1.00
H137   H     0.86281   0.17443   0.87016   0.00000  Uiso   1.00
H138   H     0.75016   0.47406   0.23084   0.00000  Uiso   1.00
H139   H     0.81375   0.46059   0.32652   0.00000  Uiso   1.00
H140   H     0.72313   0.53762   0.32474   0.00000  Uiso   1.00
H141   H     0.59114   0.29567   0.29326   0.00000  Uiso   1.00
H142   H     0.64600   0.34079   0.20431   0.00000  Uiso   1.00
H143   H     0.58794   0.42358   0.25916   0.00000  Uiso   1.00
C144   C     0.00758   0.93805   0.60352   0.00000  Uiso   1.00
H145   H     0.97584   0.90457   0.33363   0.00000  Uiso   1.00
H146   H     0.93372   0.95065   0.42677   0.00000  Uiso   1.00
H147   H     0.03082   0.88345   0.43344   0.00000  Uiso   1.00
H148   H     0.00708   0.04740   0.25440   0.00000  Uiso   1.00
H149   H     0.06107   0.14934   0.30340   0.00000  Uiso   1.00
H150   H     0.95277   0.12256   0.32180   0.00000  Uiso   1.00
Ca151  Ca    0.15240   0.48647   0.28924   0.00000  Uiso   1.00
Ca152  Ca    0.10037   0.30074   0.47911   0.00000  Uiso   1.00
Ca153  Ca    0.08187   0.57158   0.07790   0.00000  Uiso   1.00
O154   O     0.03241   0.55049   0.22288   0.00000  Uiso   1.00
O155   O     0.07448   0.34603   0.33716   0.00000  Uiso   1.00
O156   O     0.15075   0.43976   0.15093   0.00000  Uiso   1.00
C157   C     0.98484   0.63137   0.22523   0.00000  Uiso   1.00
O158   O     0.98384   0.66914   0.15652   0.00000  Uiso   1.00
O159   O     0.98129   0.27498   0.40712   0.00000  Uiso   1.00
O160   O     0.84671   0.51816   0.03448   0.00000  Uiso   1.00
O161   O     0.84809   0.55811   0.57651   0.00000  Uiso   1.00
C162   C     0.99772   0.31812   0.33831   0.00000  Uiso   1.00
C163   C     0.81285   0.33000   0.13016   0.00000  Uiso   1.00
H164   H     0.76640   0.33713   0.07868   0.00000  Uiso   1.00
O165   O     0.97534   0.46248   0.02066   0.00000  Uiso   1.00
C166   C     0.93441   0.31973   0.26508   0.00000  Uiso   1.00
C167   C     0.86050   0.26371   0.26658   0.00000  Uiso   1.00
H168   H     0.84883   0.21937   0.32159   0.00000  Uiso   1.00
O169   O     0.72849   0.12320   0.25235   0.00000  Uiso   1.00
N170   N     0.22077   0.29432   0.13784   0.00000  Uiso   1.00
C171   C     0.87510   0.73817   0.29359   0.00000  Uiso   1.00
H172   H     0.87479   0.78866   0.24040   0.00000  Uiso   1.00
C173   C     0.93516   0.59906   0.37005   0.00000  Uiso   1.00
H174   H     0.97884   0.53873   0.37365   0.00000  Uiso   1.00
C175   C     0.89960   0.45985   0.06189   0.00000  Uiso   1.00
C176   C     0.75497   0.83378   0.34752   0.00000  Uiso   1.00
C177   C     0.81882   0.68536   0.42601   0.00000  Uiso   1.00
H178   H     0.77271   0.69102   0.47192   0.00000  Uiso   1.00
O179   O     0.66889   0.82731   0.35072   0.00000  Uiso   1.00
C180   C     0.93217   0.65903   0.29746   0.00000  Uiso   1.00
C181   C     0.88336   0.54005   0.50777   0.00000  Uiso   1.00
C182   C     0.94893   0.36970   0.19060   0.00000  Uiso   1.00
H183   H     0.00944   0.39553   0.18031   0.00000  Uiso   1.00
C184   C     0.88033   0.61196   0.43560   0.00000  Uiso   1.00
C185   C     0.80244   0.26093   0.19609   0.00000  Uiso   1.00
O186   O     0.68337   0.18190   0.12569   0.00000  Uiso   1.00
C187   C     0.81636   0.75071   0.35651   0.00000  Uiso   1.00
O188   O     0.77699   0.91402   0.32307   0.00000  Uiso   1.00
C189   C     0.88547   0.38718   0.12927   0.00000  Uiso   1.00
C190   C     0.73378   0.18498   0.19124   0.00000  Uiso   1.00
O191   O     0.92342   0.46082   0.49775   0.00000  Uiso   1.00
C192   C     0.20398   0.39145   0.11763   0.00000  Uiso   1.00
H193   H     0.23500   0.42432   0.06590   0.00000  Uiso   1.00
O194   O     0.12971   0.13397   0.46688   0.00000  Uiso   1.00
O195   O     0.21127   0.33243   0.57066   0.00000  Uiso   1.00
C196   C     0.28561   0.24382   0.09381   0.00000  Uiso   1.00
N197   N     0.30145   0.38323   0.67506   0.00000  Uiso   1.00
C198   C     0.27963   0.32393   0.60613   0.00000  Uiso   1.00
H199   H     0.32056   0.26571   0.58782   0.00000  Uiso   1.00
C200   C     0.25082   0.46794   0.69896   0.00000  Uiso   1.00
C201   C     0.37308   0.35846   0.73139   0.00000  Uiso   1.00
C202   C     0.16047   0.23067   0.17667   0.00000  Uiso   1.00
N203   N     0.03606   0.03223   0.38757   0.00000  Uiso   1.00
C204   C     0.10965   0.05196   0.43953   0.00000  Uiso   1.00
H205   H     0.14915   0.99064   0.45813   0.00000  Uiso   1.00
C206   C     0.01382   0.09221   0.31321   0.00000  Uiso   1.00
H207   H     0.75985   0.71434   0.03209   0.00000  Uiso   1.00
H208   H     0.81024   0.68053   0.13248   0.00000  Uiso   1.00
H209   H     0.83732   0.79514   0.08237   0.00000  Uiso   1.00
H210   H     0.60686   0.77282   0.19625   0.00000  Uiso   1.00
H211   H     0.68972   0.69083   0.23201   0.00000  Uiso   1.00
H212   H     0.63719   0.67443   0.12984   0.00000  Uiso   1.00
H213   H     0.74984   0.97406   0.76916   0.00000  Uiso   1.00
H214   H     0.68625   0.96059   0.67348   0.00000  Uiso   1.00
H215   H     0.77687   0.03762   0.67526   0.00000  Uiso   1.00
H216   H     0.90886   0.79567   0.70674   0.00000  Uiso   1.00
H217   H     0.85400   0.84079   0.79569   0.00000  Uiso   1.00
H218   H     0.91206   0.92358   0.74084   0.00000  Uiso   1.00
C219   C     0.49242   0.43805   0.39648   0.00000  Uiso   1.00
H220   H     0.52416   0.40457   0.66637   0.00000  Uiso   1.00
H221   H     0.56628   0.45065   0.57323   0.00000  Uiso   1.00
H222   H     0.46918   0.38345   0.56656   0.00000  Uiso   1.00
H223   H     0.49292   0.54740   0.74560   0.00000  Uiso   1.00
H224   H     0.43893   0.64934   0.69660   0.00000  Uiso   1.00
H225   H     0.54723   0.62256   0.67820   0.00000  Uiso   1.00
Ca226  Ca    0.65240   0.98647   0.28924   0.00000  Uiso   1.00
Ca227  Ca    0.60037   0.80074   0.47911   0.00000  Uiso   1.00
Ca228  Ca    0.58187   0.07158   0.07790   0.00000  Uiso   1.00
O229   O     0.53241   0.05049   0.22288   0.00000  Uiso   1.00
O230   O     0.57448   0.84603   0.33716   0.00000  Uiso   1.00
O231   O     0.65075   0.93976   0.15093   0.00000  Uiso   1.00
C232   C     0.48484   0.13137   0.22523   0.00000  Uiso   1.00
O233   O     0.48384   0.16914   0.15652   0.00000  Uiso   1.00
O234   O     0.48129   0.77498   0.40712   0.00000  Uiso   1.00
O235   O     0.34671   0.01816   0.03448   0.00000  Uiso   1.00
O236   O     0.34809   0.05811   0.57651   0.00000  Uiso   1.00
C237   C     0.49772   0.81812   0.33831   0.00000  Uiso   1.00
C238   C     0.31285   0.83000   0.13016   0.00000  Uiso   1.00
H239   H     0.26640   0.83713   0.07868   0.00000  Uiso   1.00
O240   O     0.47534   0.96248   0.02066   0.00000  Uiso   1.00
C241   C     0.43441   0.81973   0.26508   0.00000  Uiso   1.00
C242   C     0.36050   0.76371   0.26658   0.00000  Uiso   1.00
H243   H     0.34883   0.71937   0.32159   0.00000  Uiso   1.00
O244   O     0.22849   0.62320   0.25235   0.00000  Uiso   1.00
N245   N     0.72077   0.79432   0.13784   0.00000  Uiso   1.00
C246   C     0.37510   0.23817   0.29359   0.00000  Uiso   1.00
H247   H     0.37479   0.28866   0.24040   0.00000  Uiso   1.00
C248   C     0.43516   0.09906   0.37005   0.00000  Uiso   1.00
H249   H     0.47884   0.03873   0.37365   0.00000  Uiso   1.00
C250   C     0.39960   0.95985   0.06189   0.00000  Uiso   1.00
C251   C     0.25497   0.33378   0.34752   0.00000  Uiso   1.00
C252   C     0.31882   0.18536   0.42601   0.00000  Uiso   1.00
H253   H     0.27271   0.19102   0.47192   0.00000  Uiso   1.00
O254   O     0.16889   0.32731   0.35072   0.00000  Uiso   1.00
C255   C     0.43217   0.15903   0.29746   0.00000  Uiso   1.00
C256   C     0.38336   0.04005   0.50777   0.00000  Uiso   1.00
C257   C     0.44893   0.86970   0.19060   0.00000  Uiso   1.00
H258   H     0.50944   0.89553   0.18031   0.00000  Uiso   1.00
C259   C     0.38033   0.11196   0.43560   0.00000  Uiso   1.00
C260   C     0.30244   0.76093   0.19609   0.00000  Uiso   1.00
O261   O     0.18337   0.68190   0.12569   0.00000  Uiso   1.00
C262   C     0.31636   0.25071   0.35651   0.00000  Uiso   1.00
O263   O     0.27699   0.41402   0.32307   0.00000  Uiso   1.00
C264   C     0.38547   0.88718   0.12927   0.00000  Uiso   1.00
C265   C     0.23378   0.68498   0.19124   0.00000  Uiso   1.00
O266   O     0.42342   0.96082   0.49775   0.00000  Uiso   1.00
C267   C     0.70398   0.89145   0.11763   0.00000  Uiso   1.00
H268   H     0.73500   0.92432   0.06590   0.00000  Uiso   1.00
O269   O     0.62971   0.63397   0.46688   0.00000  Uiso   1.00
O270   O     0.71127   0.83243   0.57066   0.00000  Uiso   1.00
C271   C     0.78561   0.74382   0.09381   0.00000  Uiso   1.00
N272   N     0.80145   0.88323   0.67506   0.00000  Uiso   1.00
C273   C     0.77963   0.82393   0.60613   0.00000  Uiso   1.00
H274   H     0.82056   0.76571   0.58782   0.00000  Uiso   1.00
C275   C     0.75082   0.96794   0.69896   0.00000  Uiso   1.00
C276   C     0.87308   0.85846   0.73139   0.00000  Uiso   1.00
C277   C     0.66047   0.73067   0.17667   0.00000  Uiso   1.00
N278   N     0.53606   0.53223   0.38757   0.00000  Uiso   1.00
C279   C     0.60965   0.55196   0.43953   0.00000  Uiso   1.00
H280   H     0.64915   0.49064   0.45813   0.00000  Uiso   1.00
C281   C     0.51382   0.59221   0.31321   0.00000  Uiso   1.00
H282   H     0.25985   0.21434   0.03209   0.00000  Uiso   1.00
H283   H     0.31024   0.18053   0.13248   0.00000  Uiso   1.00
H284   H     0.33732   0.29514   0.08237   0.00000  Uiso   1.00
H285   H     0.10686   0.27282   0.19625   0.00000  Uiso   1.00
H286   H     0.18972   0.19083   0.23201   0.00000  Uiso   1.00
H287   H     0.13719   0.17443   0.12984   0.00000  Uiso   1.00
H288   H     0.24984   0.47406   0.76916   0.00000  Uiso   1.00
H289   H     0.18625   0.46059   0.67348   0.00000  Uiso   1.00
H290   H     0.27687   0.53762   0.67526   0.00000  Uiso   1.00
H291   H     0.40886   0.29567   0.70674   0.00000  Uiso   1.00
H292   H     0.35400   0.34079   0.79569   0.00000  Uiso   1.00
H293   H     0.41206   0.42358   0.74084   0.00000  Uiso   1.00
C294   C     0.99242   0.93805   0.39648   0.00000  Uiso   1.00
H295   H     0.02416   0.90457   0.66637   0.00000  Uiso   1.00
H296   H     0.06628   0.95065   0.57323   0.00000  Uiso   1.00
H297   H     0.96918   0.88345   0.56656   0.00000  Uiso   1.00
H298   H     0.99292   0.04740   0.74560   0.00000  Uiso   1.00
H299   H     0.93893   0.14934   0.69660   0.00000  Uiso   1.00
H300   H     0.04723   0.12256   0.67820   0.00000  Uiso   1.00
O301   O     0.00000   0.68748   0.00000   0.00000  Uiso   1.00
O302   O     0.50000   0.18748   0.00000   0.00000  Uiso   1.00
loop_
_geom_bond_atom_site_label_1
_geom_bond_atom_site_label_2
_geom_bond_distance
_geom_bond_site_symmetry_2
_ccdc_geom_bond_type
Ca1    Ca3     3.647   .     S
Ca1    O4      2.330   .     S
Ca1    O5      2.427   .     S
Ca1    O6      2.268   .     S
Ca1    O104    2.368   .     S
Ca1    O113    2.288   .     S
Ca1    O94     2.317   .     S
Ca1    O161    2.327   .     S
Ca2    O5      2.334   .     S
Ca2    O9      2.218   1_655 S
Ca2    O44     2.314   .     S
Ca2    O45     2.287   .     S
Ca2    O191    2.231   .     S
Ca2    O159    2.318   .     S
Ca2    O104    2.392   .     S
Ca3    O4      2.482   .     S
Ca3    O6      2.368   .     S
Ca3    O8      2.459   1_655 S
Ca3    O15     2.412   1_655 S
Ca3    O301    2.356   1_656 S
Ca3    O111    2.319   .     S
Ca3    O160    2.290   1_556 S
Ca3    Ca153   3.520   1_656 S
Ca3    O165    2.300   1_556 S
O4     C7      1.341   1_655 S
O5     C12     1.307   1_655 S
O6     C42     1.226   .     D
C7     O4      1.341   1_455 S
C7     O8      1.196   .     D
C7     C30     1.511   .     S
O8     Ca3     2.459   1_455 S
O9     C12     1.273   .     D
O9     Ca2     2.218   1_455 S
O9     Ca152   2.318   .     S
O10    C25     1.228   .     D
O10    Ca153   2.290   1_556 S
O11    C31     1.278   .     S
O11    Ca151   2.327   .     S
C12    C16     1.503   .     S
C12    O5      1.307   1_455 S
C13    H14     1.082   .     S
C13    C35     1.414   .     D
C13    C39     1.413   .     S
O15    C25     1.427   .     S
O15    Ca3     2.412   1_455 S
O15    Ca153   2.300   1_556 S
C16    C17     1.423   .     D
C16    C32     1.386   .     S
C17    H18     1.079   .     S
C17    C35     1.418   .     S
O19    C40     1.281   .     S
O19    Ca76    2.317   1_545 S
N20    C42     1.375   .     S
N20    C46     1.465   .     S
N20    C52     1.465   .     S
C21    H22     1.081   .     S
C21    C37     1.426   .     S
C21    C30     1.416   .     D
C23    H24     1.081   .     S
C23    C34     1.414   .     D
C23    C30     1.401   .     S
C25    C39     1.474   .     S
C26    O29     1.408   .     S
C26    O38     1.212   .     D
C26    C37     1.504   .     S
C27    H28     1.074   .     S
C27    C34     1.412   .     S
C27    C37     1.406   .     D
O29    Ca76    2.368   .     S
O29    Ca77    2.392   .     S
C31    C34     1.495   .     S
C31    O41     1.268   .     D
C32    H33     1.066   1_455 S
C32    C39     1.394   .     D
H33    C32     1.066   1_655 S
C35    C40     1.516   .     S
O36    C40     1.283   .     D
O36    Ca78    2.319   .     S
O38    Ca76    2.288   .     S
O41    Ca152   2.231   .     S
C42    H43     1.079   .     S
O44    C54     1.227   .     D
O45    C48     1.222   .     D
C46    H132    1.111   .     S
C46    H133    1.112   .     S
C46    H134    1.113   .     S
N47    C48     1.380   .     S
N47    C50     1.472   .     S
N47    C51     1.464   .     S
C48    H49     1.081   .     S
C50    H138    1.110   .     S
C50    H139    1.108   .     S
C50    H140    1.106   .     S
C51    H141    1.112   .     S
C51    H142    1.103   .     S
C51    H143    1.090   .     S
C52    H135    1.101   .     S
C52    H136    1.109   .     S
C52    H137    1.111   .     S
N53    C54     1.437   .     S
N53    C56     1.454   .     S
N53    C144    1.468   1_645 S
C54    H55     1.079   1_545 S
H55    C54     1.079   1_565 S
C56    H298    1.107   .     S
C56    H299    1.107   .     S
C56    H300    1.091   1_655 S
H57    C121    1.111   .     S
H58    C121    1.112   .     S
H59    C121    1.113   .     S
H60    C127    1.101   .     S
H61    C127    1.109   .     S
H62    C127    1.111   .     S
H63    C125    1.110   .     S
H64    C125    1.108   .     S
H65    C125    1.106   1_545 S
H66    C126    1.112   .     S
H67    C126    1.103   .     S
H68    C126    1.090   .     S
C69    N128    1.468   .     S
C69    H220    1.108   .     S
C69    H221    1.105   .     S
C69    H222    1.111   .     S
H70    C219    1.108   .     S
H71    C219    1.105   .     S
H72    C219    1.111   .     S
H73    C281    1.107   .     S
H74    C281    1.107   .     S
H75    C281    1.091   .     S
Ca76   Ca78    3.647   1_565 S
Ca76   O79     2.330   1_565 S
Ca76   O80     2.427   .     S
Ca76   O81     2.268   .     S
Ca76   O19     2.317   1_565 S
Ca76   O236    2.327   1_565 S
Ca77   O80     2.334   .     S
Ca77   O84     2.218   .     S
Ca77   O119    2.314   .     S
Ca77   O120    2.287   .     S
Ca77   O266    2.231   .     S
Ca77   O234    2.318   .     S
Ca78   Ca76    3.647   1_545 S
Ca78   O79     2.482   .     S
Ca78   O81     2.368   1_545 S
Ca78   O83     2.459   .     S
Ca78   O90     2.412   1_545 S
Ca78   O302    2.356   1_556 S
Ca78   O235    2.290   1_556 S
Ca78   Ca228   3.520   1_556 S
Ca78   O240    2.300   1_546 S
O79    C82     1.341   .     S
O79    Ca76    2.330   1_545 S
O80    C87     1.307   .     S
O81    C117    1.226   .     D
O81    Ca78    2.368   1_565 S
C82    O83     1.196   .     D
C82    C105    1.511   .     S
O84    C87     1.273   .     D
O84    Ca227   2.318   .     S
O85    C100    1.228   1_545 D
O85    Ca228   2.290   1_556 S
O86    C106    1.278   .     S
O86    Ca226   2.327   1_545 S
C87    C91     1.503   .     S
C88    H89     1.082   .     S
C88    C110    1.414   .     D
C88    C114    1.413   .     S
O90    C100    1.427   .     S
O90    Ca78    2.412   1_565 S
O90    Ca228   2.300   1_566 S
C91    C92     1.423   .     D
C91    C107    1.386   .     S
C92    H93     1.079   .     S
C92    C110    1.418   .     S
O94    C115    1.281   .     S
N95    C117    1.375   .     S
N95    C121    1.465   .     S
N95    C127    1.465   .     S
C96    H97     1.081   .     S
C96    C112    1.426   .     S
C96    C105    1.416   .     D
C98    H99     1.081   .     S
C98    C109    1.414   .     D
C98    C105    1.401   .     S
C100   O85     1.228   1_565 D
C100   C114    1.474   .     S
C101   O104    1.408   .     S
C101   O113    1.212   .     D
C101   C112    1.504   .     S
C102   H103    1.074   .     S
C102   C109    1.412   .     S
C102   C112    1.406   .     D
C106   C109    1.495   .     S
C106   O116    1.268   1_545 D
C107   H108    1.066   .     S
C107   C114    1.394   .     D
C110   C115    1.516   .     S
O111   C115    1.283   .     D
O116   C106    1.268   1_565 D
O116   Ca227   2.231   .     S
C117   H118    1.079   .     S
O119   C129    1.227   .     D
O120   C123    1.222   .     D
N122   C123    1.380   .     S
N122   C125    1.472   .     S
N122   C126    1.464   .     S
C123   H124    1.081   .     S
C125   H65     1.106   1_565 S
N128   C129    1.437   .     S
N128   C131    1.454   .     S
C129   H130    1.079   .     S
C131   H223    1.107   .     S
C131   H224    1.107   .     S
C131   H225    1.091   .     S
C144   N53     1.468   1_465 S
C144   H295    1.108   .     S
C144   H296    1.105   .     S
C144   H297    1.111   1_455 S
H145   C294    1.108   .     S
H146   C294    1.105   .     S
H147   C294    1.111   1_455 S
H148   C206    1.107   .     S
H149   C206    1.107   .     S
H150   C206    1.091   1_655 S
Ca151  Ca153   3.647   .     S
Ca151  O154    2.330   .     S
Ca151  O155    2.427   .     S
Ca151  O156    2.268   .     S
Ca151  O254    2.368   .     S
Ca151  O263    2.288   .     S
Ca151  O244    2.317   .     S
Ca152  O155    2.334   .     S
Ca152  O159    2.218   1_455 S
Ca152  O194    2.314   .     S
Ca152  O195    2.287   .     S
Ca152  O254    2.392   .     S
Ca153  O154    2.482   .     S
Ca153  O156    2.368   .     S
Ca153  O158    2.459   1_455 S
Ca153  O165    2.412   1_455 S
Ca153  O301    2.356   .     S
Ca153  O261    2.319   .     S
Ca153  O10     2.290   1_554 S
Ca153  Ca3     3.520   1_454 S
Ca153  O15     2.300   1_554 S
O154   C157    1.341   1_455 S
O155   C162    1.307   1_455 S
O156   C192    1.226   .     D
C157   O154    1.341   1_655 S
C157   O158    1.196   .     D
C157   C180    1.511   .     S
O158   Ca153   2.459   1_655 S
O159   C162    1.273   .     D
O159   Ca152   2.218   1_655 S
O160   C175    1.228   .     D
O160   Ca3     2.290   1_554 S
O161   C181    1.278   .     S
C162   C166    1.503   .     S
C162   O155    1.307   1_655 S
C163   H164    1.082   .     S
C163   C185    1.414   .     D
C163   C189    1.413   .     S
O165   C175    1.427   .     S
O165   Ca153   2.412   1_655 S
O165   Ca3     2.300   1_554 S
C166   C167    1.423   .     D
C166   C182    1.386   .     S
C167   H168    1.079   .     S
C167   C185    1.418   .     S
O169   C190    1.281   .     S
O169   Ca226   2.317   1_545 S
N170   C192    1.375   .     S
N170   C196    1.465   .     S
N170   C202    1.465   .     S
C171   H172    1.081   .     S
C171   C187    1.426   .     S
C171   C180    1.416   .     D
C173   H174    1.081   .     S
C173   C184    1.414   .     D
C173   C180    1.401   .     S
C175   C189    1.474   .     S
C176   O179    1.408   .     S
C176   O188    1.212   .     D
C176   C187    1.504   .     S
C177   H178    1.074   .     S
C177   C184    1.412   .     S
C177   C187    1.406   .     D
O179   Ca226   2.368   .     S
O179   Ca227   2.392   .     S
C181   C184    1.495   .     S
C181   O191    1.268   .     D
C182   H183    1.066   1_655 S
C182   C189    1.394   .     D
H183   C182    1.066   1_455 S
C185   C190    1.516   .     S
O186   C190    1.283   .     D
O186   Ca228   2.319   .     S
O188   Ca226   2.288   .     S
C192   H193    1.079   .     S
O194   C204    1.227   .     D
O195   C198    1.222   .     D
C196   H282    1.111   .     S
C196   H283    1.112   .     S
C196   H284    1.113   .     S
N197   C198    1.380   .     S
N197   C200    1.472   .     S
N197   C201    1.464   .     S
C198   H199    1.081   .     S
C200   H288    1.110   .     S
C200   H289    1.108   .     S
C200   H290    1.106   .     S
C201   H291    1.112   .     S
C201   H292    1.103   .     S
C201   H293    1.090   .     S
C202   H285    1.101   .     S
C202   H286    1.109   .     S
C202   H287    1.111   .     S
N203   C204    1.437   .     S
N203   C206    1.454   .     S
N203   C294    1.468   1_445 S
C204   H205    1.079   1_545 S
H205   C204    1.079   1_565 S
C206   H150    1.091   1_455 S
H207   C271    1.111   .     S
H208   C271    1.112   .     S
H209   C271    1.113   .     S
H210   C277    1.101   .     S
H211   C277    1.109   .     S
H212   C277    1.111   .     S
H213   C275    1.110   .     S
H214   C275    1.108   .     S
H215   C275    1.106   1_545 S
H216   C276    1.112   .     S
H217   C276    1.103   .     S
H218   C276    1.090   .     S
C219   N278    1.468   .     S
Ca226  Ca228   3.647   1_565 S
Ca226  O229    2.330   1_565 S
Ca226  O230    2.427   .     S
Ca226  O231    2.268   .     S
Ca226  O169    2.317   1_565 S
Ca226  O86     2.327   1_565 S
Ca227  O230    2.334   .     S
Ca227  O234    2.218   .     S
Ca227  O269    2.314   .     S
Ca227  O270    2.287   .     S
Ca228  Ca226   3.647   1_545 S
Ca228  O229    2.482   .     S
Ca228  O231    2.368   1_545 S
Ca228  O233    2.459   .     S
Ca228  O240    2.412   1_545 S
Ca228  O302    2.356   .     S
Ca228  O85     2.290   1_554 S
Ca228  Ca78    3.520   1_554 S
Ca228  O90     2.300   1_544 S
O229   C232    1.341   .     S
O229   Ca226   2.330   1_545 S
O230   C237    1.307   .     S
O231   C267    1.226   .     D
O231   Ca228   2.368   1_565 S
C232   O233    1.196   .     D
C232   C255    1.511   .     S
O234   C237    1.273   .     D
O235   C250    1.228   1_545 D
O235   Ca78    2.290   1_554 S
O236   C256    1.278   .     S
O236   Ca76    2.327   1_545 S
C237   C241    1.503   .     S
C238   H239    1.082   .     S
C238   C260    1.414   .     D
C238   C264    1.413   .     S
O240   C250    1.427   .     S
O240   Ca228   2.412   1_565 S
O240   Ca78    2.300   1_564 S
C241   C242    1.423   .     D
C241   C257    1.386   .     S
C242   H243    1.079   .     S
C242   C260    1.418   .     S
O244   C265    1.281   .     S
N245   C267    1.375   .     S
N245   C271    1.465   .     S
N245   C277    1.465   .     S
C246   H247    1.081   .     S
C246   C262    1.426   .     S
C246   C255    1.416   .     D
C248   H249    1.081   .     S
C248   C259    1.414   .     D
C248   C255    1.401   .     S
C250   O235    1.228   1_565 D
C250   C264    1.474   .     S
C251   O254    1.408   .     S
C251   O263    1.212   .     D
C251   C262    1.504   .     S
C252   H253    1.074   .     S
C252   C259    1.412   .     S
C252   C262    1.406   .     D
C256   C259    1.495   .     S
C256   O266    1.268   1_545 D
C257   H258    1.066   .     S
C257   C264    1.394   .     D
C260   C265    1.516   .     S
O261   C265    1.283   .     D
O266   C256    1.268   1_565 D
C267   H268    1.079   .     S
O269   C279    1.227   .     D
O270   C273    1.222   .     D
N272   C273    1.380   .     S
N272   C275    1.472   .     S
N272   C276    1.464   .     S
C273   H274    1.081   .     S
C275   H215    1.106   1_565 S
N278   C279    1.437   .     S
N278   C281    1.454   .     S
C279   H280    1.079   .     S
C294   N203    1.468   1_665 S
C294   H147    1.111   1_655 S
H297   C144    1.111   1_655 S
H300   C56     1.091   1_455 S
O301   Ca3     2.356   1_454 S
O302   Ca78    2.356   1_554 S
