data_TULPUO_FSR
_audit_creation_date              2024-06-11
_audit_creation_method            'Materials Studio'
_symmetry_space_group_name_H-M    'P1'
_symmetry_Int_Tables_number       1
_symmetry_cell_setting            triclinic
loop_
_symmetry_equiv_pos_as_xyz
  x,y,z
_cell_length_a                    11.3500
_cell_length_b                    9.8640
_cell_length_c                    14.5660
_cell_angle_alpha                 90.0000
_cell_angle_beta                  91.4000
_cell_angle_gamma                 90.0000
loop_
_atom_site_label
_atom_site_type_symbol
_atom_site_fract_x
_atom_site_fract_y
_atom_site_fract_z
_atom_site_U_iso_or_equiv
_atom_site_adp_type
_atom_site_occupancy
Mg1    Mg    0.74363   0.07805   0.36519   0.00000  Uiso   1.00
Mg2    Mg    0.73952   0.38744   0.30942   0.00000  Uiso   1.00
O3     O     0.80776   0.69922   0.24687   0.00000  Uiso   1.00
O4     O     0.63112   0.49277   0.21980   0.00000  Uiso   1.00
O5     O     0.65707   0.75507   0.11166   0.00000  Uiso   1.00
O6     O     0.81688   0.97427   0.47501   0.00000  Uiso   1.00
O7     O     0.65084   0.91743   0.30376   0.00000  Uiso   1.00
O8     O     0.60149   0.15110   0.43722   0.00000  Uiso   1.00
O9     O     0.81404   0.55590   0.36611   0.00000  Uiso   1.00
O10    O     0.61103   0.37251   0.40277   0.00000  Uiso   1.00
O11    O     0.64969   0.89480   0.53333   0.00000  Uiso   1.00
O12    O     0.48326   0.89248   0.37976   0.00000  Uiso   1.00
O13    O     0.51931   0.70724   0.00360   0.00000  Uiso   1.00
O14    O     0.46269   0.49846   0.13750   0.00000  Uiso   1.00
C15    C     0.82948   0.66877   0.33065   0.00000  Uiso   1.00
H16    H     0.86015   0.73854   0.36932   0.00000  Uiso   1.00
C17    C     0.56902   0.27519   0.44433   0.00000  Uiso   1.00
H18    H     0.50714   0.29400   0.48519   0.00000  Uiso   1.00
C19    C     0.51974   0.48254   0.20976   0.00000  Uiso   1.00
H20    H     0.47665   0.46063   0.26285   0.00000  Uiso   1.00
C21    C     0.54929   0.86707   0.31588   0.00000  Uiso   1.00
H22    H     0.52145   0.80357   0.27137   0.00000  Uiso   1.00
C23    C     0.75804   0.90009   0.52954   0.00000  Uiso   1.00
H24    H     0.80185   0.84394   0.57091   0.00000  Uiso   1.00
C25    C     0.57822   0.78710   0.05091   0.00000  Uiso   1.00
H26    H     0.56389   0.88102   0.04150   0.00000  Uiso   1.00
Mg27   Mg    0.75637   0.57805   0.13481   0.00000  Uiso   1.00
Mg28   Mg    0.76048   0.88744   0.19058   0.00000  Uiso   1.00
O29    O     0.69224   0.19922   0.25313   0.00000  Uiso   1.00
O30    O     0.86888   0.99277   0.28020   0.00000  Uiso   1.00
O31    O     0.84293   0.25507   0.38834   0.00000  Uiso   1.00
O32    O     0.68312   0.47427   0.02499   0.00000  Uiso   1.00
O33    O     0.84916   0.41743   0.19624   0.00000  Uiso   1.00
O34    O     0.89851   0.65110   0.06278   0.00000  Uiso   1.00
O35    O     0.68596   0.05590   0.13389   0.00000  Uiso   1.00
O36    O     0.88897   0.87251   0.09723   0.00000  Uiso   1.00
O37    O     0.85031   0.39480   0.96667   0.00000  Uiso   1.00
O38    O     0.01674   0.39248   0.12024   0.00000  Uiso   1.00
O39    O     0.98069   0.20724   0.49640   0.00000  Uiso   1.00
O40    O     0.03731   0.99846   0.36250   0.00000  Uiso   1.00
C41    C     0.67052   0.16877   0.16935   0.00000  Uiso   1.00
H42    H     0.63984   0.23854   0.13068   0.00000  Uiso   1.00
C43    C     0.93098   0.77519   0.05567   0.00000  Uiso   1.00
H44    H     0.99286   0.79400   0.01481   0.00000  Uiso   1.00
C45    C     0.98026   0.98254   0.29024   0.00000  Uiso   1.00
H46    H     0.02335   0.96063   0.23715   0.00000  Uiso   1.00
C47    C     0.95071   0.36707   0.18412   0.00000  Uiso   1.00
H48    H     0.97855   0.30357   0.22863   0.00000  Uiso   1.00
C49    C     0.74196   0.40009   0.97046   0.00000  Uiso   1.00
H50    H     0.69814   0.34394   0.92909   0.00000  Uiso   1.00
C51    C     0.92178   0.28710   0.44909   0.00000  Uiso   1.00
H52    H     0.93611   0.38102   0.45850   0.00000  Uiso   1.00
Mg53   Mg    0.25637   0.92195   0.63481   0.00000  Uiso   1.00
Mg54   Mg    0.26048   0.61256   0.69058   0.00000  Uiso   1.00
O55    O     0.19224   0.30078   0.75313   0.00000  Uiso   1.00
O56    O     0.36888   0.50723   0.78020   0.00000  Uiso   1.00
O57    O     0.34293   0.24493   0.88834   0.00000  Uiso   1.00
O58    O     0.18312   0.02573   0.52499   0.00000  Uiso   1.00
O59    O     0.34916   0.08257   0.69624   0.00000  Uiso   1.00
O60    O     0.39851   0.84890   0.56278   0.00000  Uiso   1.00
O61    O     0.18596   0.44410   0.63389   0.00000  Uiso   1.00
O62    O     0.38897   0.62749   0.59723   0.00000  Uiso   1.00
O63    O     0.35031   0.10520   0.46667   0.00000  Uiso   1.00
O64    O     0.51674   0.10752   0.62024   0.00000  Uiso   1.00
O65    O     0.48069   0.29276   0.99640   0.00000  Uiso   1.00
O66    O     0.53731   0.50154   0.86250   0.00000  Uiso   1.00
C67    C     0.17052   0.33123   0.66935   0.00000  Uiso   1.00
H68    H     0.13985   0.26146   0.63068   0.00000  Uiso   1.00
C69    C     0.43098   0.72481   0.55567   0.00000  Uiso   1.00
H70    H     0.49286   0.70600   0.51481   0.00000  Uiso   1.00
C71    C     0.48026   0.51746   0.79024   0.00000  Uiso   1.00
H72    H     0.52335   0.53937   0.73715   0.00000  Uiso   1.00
C73    C     0.45071   0.13293   0.68412   0.00000  Uiso   1.00
H74    H     0.47855   0.19643   0.72863   0.00000  Uiso   1.00
C75    C     0.24196   0.09991   0.47046   0.00000  Uiso   1.00
H76    H     0.19815   0.15606   0.42909   0.00000  Uiso   1.00
C77    C     0.42178   0.21290   0.94909   0.00000  Uiso   1.00
H78    H     0.43611   0.11898   0.95850   0.00000  Uiso   1.00
Mg79   Mg    0.24363   0.42195   0.86519   0.00000  Uiso   1.00
Mg80   Mg    0.23952   0.11256   0.80942   0.00000  Uiso   1.00
O81    O     0.30776   0.80078   0.74687   0.00000  Uiso   1.00
O82    O     0.13112   0.00723   0.71980   0.00000  Uiso   1.00
O83    O     0.15707   0.74493   0.61166   0.00000  Uiso   1.00
O84    O     0.31688   0.52573   0.97501   0.00000  Uiso   1.00
O85    O     0.15084   0.58257   0.80376   0.00000  Uiso   1.00
O86    O     0.10149   0.34890   0.93722   0.00000  Uiso   1.00
O87    O     0.31404   0.94410   0.86611   0.00000  Uiso   1.00
O88    O     0.11103   0.12749   0.90277   0.00000  Uiso   1.00
O89    O     0.14969   0.60520   0.03333   0.00000  Uiso   1.00
O90    O     0.98326   0.60752   0.87976   0.00000  Uiso   1.00
O91    O     0.01931   0.79276   0.50360   0.00000  Uiso   1.00
O92    O     0.96269   0.00154   0.63750   0.00000  Uiso   1.00
C93    C     0.32948   0.83123   0.83065   0.00000  Uiso   1.00
H94    H     0.36015   0.76146   0.86932   0.00000  Uiso   1.00
C95    C     0.06902   0.22481   0.94433   0.00000  Uiso   1.00
H96    H     0.00714   0.20600   0.98519   0.00000  Uiso   1.00
C97    C     0.01974   0.01746   0.70976   0.00000  Uiso   1.00
H98    H     0.97665   0.03937   0.76285   0.00000  Uiso   1.00
C99    C     0.04929   0.63293   0.81588   0.00000  Uiso   1.00
H100   H     0.02145   0.69643   0.77137   0.00000  Uiso   1.00
C101   C     0.25804   0.59991   0.02954   0.00000  Uiso   1.00
H102   H     0.30185   0.65606   0.07091   0.00000  Uiso   1.00
C103   C     0.07822   0.71290   0.55091   0.00000  Uiso   1.00
H104   H     0.06389   0.61898   0.54150   0.00000  Uiso   1.00
Mg105  Mg    0.50000   0.50000  -0.00000   0.00000  Uiso   1.00
Mg106  Mg    0.00000   0.00000   0.50000   0.00000  Uiso   1.00
Mg107  Mg    0.50000   0.00000   0.50000   0.00000  Uiso   1.00
Mg108  Mg    0.00000   0.50000   0.00000   0.00000  Uiso   1.00
loop_
_geom_bond_atom_site_label_1
_geom_bond_atom_site_label_2
_geom_bond_distance
_geom_bond_site_symmetry_2
_ccdc_geom_bond_type
Mg1    O6      2.057   1_545 S
Mg1    O7      2.091   1_545 S
Mg1    O8      2.075   .     S
Mg1    O29     2.094   .     S
Mg1    O30     2.085   1_545 S
Mg1    O31     2.101   .     S
Mg2    O4      2.054   .     S
Mg2    O9      2.031   .     S
Mg2    O10     2.023   .     S
Mg2    O33     2.110   .     S
Mg2    O29     2.094   .     S
Mg2    O31     2.083   .     S
O3     C15     1.275   .     S
O3     Mg27    2.094   .     S
O3     Mg28    2.094   .     S
O4     C19     1.273   .     S
O4     Mg27    2.085   .     S
O5     C25     1.283   .     S
O5     Mg27    2.101   .     S
O5     Mg28    2.083   .     S
O6     Mg1     2.057   1_565 S
O6     C23     1.280   .     S
O6     Mg106   2.117   1_665 S
O7     Mg1     2.091   1_565 S
O7     C21     1.271   .     S
O7     Mg28    2.110   .     S
O8     Mg107   2.106   .     S
O8     C17     1.283   .     S
O9     C15     1.242   .     S
O10    C17     1.237   .     S
O11    Mg107   2.039   1_565 S
O11    C23     1.233   .     S
O12    Mg107   2.052   1_565 S
O12    C21     1.235   .     S
O13    Mg105   2.056   .     S
O13    C25     1.233   .     S
O14    Mg105   2.057   .     S
O14    C19     1.232   .     S
C15    H16     0.950   .     S
C17    H18     0.950   .     S
C19    H20     0.950   .     S
C21    H22     0.950   .     S
C23    H24     0.950   .     S
C25    H26     0.950   .     S
Mg27   O32     2.057   .     S
Mg27   O33     2.091   .     S
Mg27   O34     2.075   .     S
Mg28   O30     2.054   .     S
Mg28   O35     2.031   1_565 S
Mg28   O36     2.023   .     S
O29    C41     1.275   .     S
O30    C45     1.273   .     S
O30    Mg1     2.085   1_565 S
O31    C51     1.283   .     S
O32    C49     1.280   1_554 S
O32    Mg105   2.117   .     S
O33    C47     1.271   .     S
O34    Mg108   2.106   1_655 S
O34    C43     1.283   .     S
O35    Mg28    2.031   1_545 S
O35    C41     1.242   .     S
O36    C43     1.237   .     S
O37    Mg108   2.039   1_656 S
O37    C49     1.233   .     S
O38    Mg108   2.052   .     S
O38    C47     1.235   1_455 S
O39    Mg106   2.056   1_655 S
O39    C51     1.233   .     S
O40    Mg106   2.057   1_565 S
O40    C45     1.232   1_455 S
C41    H42     0.950   .     S
C43    H44     0.950   .     S
C45    O40     1.232   1_655 S
C45    H46     0.950   1_655 S
H46    C45     0.950   1_455 S
C47    H48     0.950   .     S
C47    O38     1.235   1_655 S
C49    O32     1.280   1_556 S
C49    H50     0.950   .     S
C51    H52     0.950   .     S
Mg53   O58     2.057   1_565 S
Mg53   O59     2.091   1_565 S
Mg53   O60     2.075   .     S
Mg53   O81     2.094   .     S
Mg53   O82     2.085   1_565 S
Mg53   O83     2.101   .     S
Mg54   O56     2.054   .     S
Mg54   O61     2.031   .     S
Mg54   O62     2.023   .     S
Mg54   O85     2.110   .     S
Mg54   O81     2.094   .     S
Mg54   O83     2.083   .     S
O55    C67     1.275   .     S
O55    Mg79    2.094   .     S
O55    Mg80    2.094   .     S
O56    C71     1.273   .     S
O56    Mg79    2.085   .     S
O57    C77     1.283   .     S
O57    Mg79    2.101   .     S
O57    Mg80    2.083   .     S
O58    Mg53    2.057   1_545 S
O58    C75     1.280   .     S
O58    Mg106   2.117   .     S
O59    Mg53    2.091   1_545 S
O59    C73     1.271   .     S
O59    Mg80    2.110   .     S
O60    Mg107   2.106   1_565 S
O60    C69     1.283   .     S
O61    C67     1.242   .     S
O62    C69     1.237   .     S
O63    Mg107   2.039   .     S
O63    C75     1.233   .     S
O64    Mg107   2.052   .     S
O64    C73     1.235   .     S
O65    Mg105   2.056   1_556 S
O65    C77     1.233   .     S
O66    Mg105   2.057   1_556 S
O66    C71     1.232   .     S
C67    H68     0.950   .     S
C69    H70     0.950   .     S
C71    H72     0.950   .     S
C73    H74     0.950   .     S
C75    H76     0.950   .     S
C77    H78     0.950   .     S
Mg79   O84     2.057   .     S
Mg79   O85     2.091   .     S
Mg79   O86     2.075   .     S
Mg80   O82     2.054   .     S
Mg80   O87     2.031   1_545 S
Mg80   O88     2.023   .     S
O81    C93     1.275   .     S
O82    C97     1.273   .     S
O82    Mg53    2.085   1_545 S
O83    C103    1.283   .     S
O84    C101    1.280   1_556 S
O84    Mg105   2.117   1_556 S
O85    C99     1.271   .     S
O86    Mg108   2.106   1_556 S
O86    C95     1.283   .     S
O87    Mg80    2.031   1_565 S
O87    C93     1.242   .     S
O88    C95     1.237   .     S
O89    Mg108   2.039   .     S
O89    C101    1.233   .     S
O90    Mg108   2.052   1_656 S
O90    C99     1.235   1_655 S
O91    Mg106   2.056   1_565 S
O91    C103    1.233   .     S
O92    Mg106   2.057   1_655 S
O92    C97     1.232   1_655 S
C93    H94     0.950   .     S
C95    H96     0.950   .     S
C97    O92     1.232   1_455 S
C97    H98     0.950   1_455 S
H98    C97     0.950   1_655 S
C99    H100    0.950   .     S
C99    O90     1.235   1_455 S
C101   O84     1.280   1_554 S
C101   H102    0.950   .     S
C103   H104    0.950   .     S
Mg105  O65     2.056   1_554 S
Mg105  O66     2.057   1_554 S
Mg105  O84     2.117   1_554 S
Mg106  O39     2.056   1_455 S
Mg106  O91     2.056   1_545 S
Mg106  O40     2.057   1_545 S
Mg106  O92     2.057   1_455 S
Mg106  O6      2.117   1_445 S
Mg107  O60     2.106   1_545 S
Mg107  O11     2.039   1_545 S
Mg107  O12     2.052   1_545 S
Mg108  O34     2.106   1_455 S
Mg108  O86     2.106   1_554 S
Mg108  O37     2.039   1_454 S
Mg108  O90     2.052   1_454 S
