data_TULQEZ_FSR
_audit_creation_date              2024-06-11
_audit_creation_method            'Materials Studio'
_symmetry_space_group_name_H-M    'P1'
_symmetry_Int_Tables_number       1
_symmetry_cell_setting            triclinic
loop_
_symmetry_equiv_pos_as_xyz
  x,y,z
_cell_length_a                    11.2690
_cell_length_b                    9.8480
_cell_length_c                    14.4660
_cell_angle_alpha                 90.0000
_cell_angle_beta                  91.1600
_cell_angle_gamma                 90.0000
loop_
_atom_site_label
_atom_site_type_symbol
_atom_site_fract_x
_atom_site_fract_y
_atom_site_fract_z
_atom_site_U_iso_or_equiv
_atom_site_adp_type
_atom_site_occupancy
Co1    Co    0.25532   0.07826   0.63314   0.00000  Uiso   1.00
Co2    Co    0.25966   0.38845   0.68945   0.00000  Uiso   1.00
O3     O     0.19102   0.69917   0.75483   0.00000  Uiso   1.00
O4     O     0.64996   0.08448   0.30488   0.00000  Uiso   1.00
O5     O     0.18434   0.97213   0.52361   0.00000  Uiso   1.00
O6     O     0.34687   0.75580   0.89117   0.00000  Uiso   1.00
O7     O     0.37066   0.49415   0.78067   0.00000  Uiso   1.00
O8     O     0.18284   0.55865   0.63239   0.00000  Uiso   1.00
O9     O     0.39676   0.15376   0.56030   0.00000  Uiso   1.00
O10    O     0.38666   0.37722   0.59140   0.00000  Uiso   1.00
O11    O     0.48142   0.70868   0.00289   0.00000  Uiso   1.00
O12    O     0.47635   0.10507   0.37668   0.00000  Uiso   1.00
O13    O     0.35151   0.88411   0.46699   0.00000  Uiso   1.00
O14    O     0.54254   0.50628   0.85998   0.00000  Uiso   1.00
C15    C     0.16926   0.67104   0.67019   0.00000  Uiso   1.00
H16    H     0.13983   0.74274   0.63225   0.00000  Uiso   1.00
C17    C     0.42814   0.27788   0.55008   0.00000  Uiso   1.00
H18    H     0.48869   0.29556   0.50695   0.00000  Uiso   1.00
C19    C     0.54541   0.13034   0.31341   0.00000  Uiso   1.00
H20    H     0.51726   0.19025   0.26640   0.00000  Uiso   1.00
C21    C     0.24257   0.89284   0.47062   0.00000  Uiso   1.00
H22    H     0.19748   0.83553   0.43044   0.00000  Uiso   1.00
C23    C     0.42307   0.78829   0.95381   0.00000  Uiso   1.00
H24    H     0.43624   0.88250   0.96371   0.00000  Uiso   1.00
C25    C     0.48364   0.48715   0.78846   0.00000  Uiso   1.00
H26    H     0.52598   0.46526   0.73433   0.00000  Uiso   1.00
Co27   Co    0.24468   0.57826   0.86686   0.00000  Uiso   1.00
Co28   Co    0.24034   0.88845   0.81055   0.00000  Uiso   1.00
O29    O     0.30898   0.19917   0.74517   0.00000  Uiso   1.00
O30    O     0.85004   0.58448   0.19512   0.00000  Uiso   1.00
O31    O     0.31566   0.47213   0.97639   0.00000  Uiso   1.00
O32    O     0.15313   0.25580   0.60883   0.00000  Uiso   1.00
O33    O     0.12934   0.99415   0.71933   0.00000  Uiso   1.00
O34    O     0.31716   0.05865   0.86761   0.00000  Uiso   1.00
O35    O     0.10324   0.65376   0.93970   0.00000  Uiso   1.00
O36    O     0.11334   0.87722   0.90860   0.00000  Uiso   1.00
O37    O     0.01858   0.20868   0.49711   0.00000  Uiso   1.00
O38    O     0.02365   0.60507   0.12332   0.00000  Uiso   1.00
O39    O     0.14849   0.38411   0.03301   0.00000  Uiso   1.00
O40    O     0.95746   0.00628   0.64002   0.00000  Uiso   1.00
C41    C     0.33074   0.17104   0.82981   0.00000  Uiso   1.00
H42    H     0.36017   0.24274   0.86774   0.00000  Uiso   1.00
C43    C     0.07186   0.77788   0.94992   0.00000  Uiso   1.00
H44    H     0.01131   0.79556   0.99305   0.00000  Uiso   1.00
C45    C     0.95459   0.63034   0.18659   0.00000  Uiso   1.00
H46    H     0.98274   0.69025   0.23360   0.00000  Uiso   1.00
C47    C     0.25743   0.39284   0.02938   0.00000  Uiso   1.00
H48    H     0.30252   0.33553   0.06956   0.00000  Uiso   1.00
C49    C     0.07693   0.28829   0.54619   0.00000  Uiso   1.00
H50    H     0.06376   0.38250   0.53629   0.00000  Uiso   1.00
C51    C     0.01636   0.98715   0.71154   0.00000  Uiso   1.00
H52    H     0.97402   0.96526   0.76567   0.00000  Uiso   1.00
Co53   Co    0.74468   0.92174   0.36686   0.00000  Uiso   1.00
Co54   Co    0.74034   0.61155   0.31055   0.00000  Uiso   1.00
O55    O     0.80898   0.30083   0.24517   0.00000  Uiso   1.00
O56    O     0.35004   0.91552   0.69512   0.00000  Uiso   1.00
O57    O     0.81566   0.02787   0.47639   0.00000  Uiso   1.00
O58    O     0.65313   0.24420   0.10883   0.00000  Uiso   1.00
O59    O     0.62934   0.50585   0.21933   0.00000  Uiso   1.00
O60    O     0.81716   0.44135   0.36761   0.00000  Uiso   1.00
O61    O     0.60324   0.84624   0.43970   0.00000  Uiso   1.00
O62    O     0.61334   0.62278   0.40860   0.00000  Uiso   1.00
O63    O     0.51858   0.29132   0.99711   0.00000  Uiso   1.00
O64    O     0.52365   0.89493   0.62332   0.00000  Uiso   1.00
O65    O     0.64849   0.11589   0.53301   0.00000  Uiso   1.00
O66    O     0.45746   0.49372   0.14002   0.00000  Uiso   1.00
C67    C     0.83074   0.32896   0.32981   0.00000  Uiso   1.00
H68    H     0.86017   0.25726   0.36775   0.00000  Uiso   1.00
C69    C     0.57186   0.72212   0.44992   0.00000  Uiso   1.00
H70    H     0.51131   0.70444   0.49305   0.00000  Uiso   1.00
C71    C     0.45459   0.86966   0.68659   0.00000  Uiso   1.00
H72    H     0.48274   0.80975   0.73360   0.00000  Uiso   1.00
C73    C     0.75743   0.10716   0.52938   0.00000  Uiso   1.00
H74    H     0.80252   0.16447   0.56956   0.00000  Uiso   1.00
C75    C     0.57693   0.21171   0.04619   0.00000  Uiso   1.00
H76    H     0.56376   0.11750   0.03629   0.00000  Uiso   1.00
C77    C     0.51636   0.51285   0.21154   0.00000  Uiso   1.00
H78    H     0.47402   0.53474   0.26567   0.00000  Uiso   1.00
Co79   Co    0.75532   0.42174   0.13314   0.00000  Uiso   1.00
Co80   Co    0.75966   0.11155   0.18945   0.00000  Uiso   1.00
O81    O     0.69102   0.80083   0.25483   0.00000  Uiso   1.00
O82    O     0.14996   0.41552   0.80488   0.00000  Uiso   1.00
O83    O     0.68434   0.52787   0.02361   0.00000  Uiso   1.00
O84    O     0.84687   0.74420   0.39117   0.00000  Uiso   1.00
O85    O     0.87066   0.00585   0.28067   0.00000  Uiso   1.00
O86    O     0.68284   0.94135   0.13239   0.00000  Uiso   1.00
O87    O     0.89676   0.34624   0.06030   0.00000  Uiso   1.00
O88    O     0.88666   0.12278   0.09140   0.00000  Uiso   1.00
O89    O     0.98142   0.79132   0.50289   0.00000  Uiso   1.00
O90    O     0.97635   0.39493   0.87668   0.00000  Uiso   1.00
O91    O     0.85151   0.61589   0.96699   0.00000  Uiso   1.00
O92    O     0.04254   0.99372   0.35998   0.00000  Uiso   1.00
C93    C     0.66926   0.82896   0.17019   0.00000  Uiso   1.00
H94    H     0.63983   0.75726   0.13225   0.00000  Uiso   1.00
C95    C     0.92814   0.22212   0.05008   0.00000  Uiso   1.00
H96    H     0.98869   0.20444   0.00695   0.00000  Uiso   1.00
C97    C     0.04541   0.36966   0.81341   0.00000  Uiso   1.00
H98    H     0.01726   0.30975   0.76640   0.00000  Uiso   1.00
C99    C     0.74257   0.60716   0.97062   0.00000  Uiso   1.00
H100   H     0.69748   0.66447   0.93044   0.00000  Uiso   1.00
C101   C     0.92307   0.71171   0.45381   0.00000  Uiso   1.00
H102   H     0.93624   0.61750   0.46371   0.00000  Uiso   1.00
C103   C     0.98364   0.01285   0.28846   0.00000  Uiso   1.00
H104   H     0.02598   0.03474   0.23433   0.00000  Uiso   1.00
Co105  Co    0.50000   0.00000   0.50000   0.00000  Uiso   1.00
Co106  Co    0.00000   0.50000   0.00000   0.00000  Uiso   1.00
Co107  Co    0.50000   0.50000  -0.00000   0.00000  Uiso   1.00
Co108  Co    0.00000   0.00000   0.50000   0.00000  Uiso   1.00
loop_
_geom_bond_atom_site_label_1
_geom_bond_atom_site_label_2
_geom_bond_distance
_geom_bond_site_symmetry_2
_ccdc_geom_bond_type
Co1    O5      2.047   1_545 S
Co1    O9      2.067   .     S
Co1    O56     2.115   1_545 S
Co1    O32     2.119   .     S
Co1    O29     2.091   .     S
Co1    O33     2.080   1_545 S
Co2    O7      2.079   .     S
Co2    O8      2.052   .     S
Co2    O10     2.038   .     S
Co2    O82     2.115   .     S
Co2    O32     2.110   .     S
Co2    O29     2.101   .     S
O3     C15     1.274   .     S
O3     Co27    2.091   .     S
O3     Co28    2.101   .     S
O4     C19     1.270   .     S
O4     Co53    2.115   1_545 S
O4     Co80    2.115   .     S
O5     Co1     2.047   1_565 S
O5     C21     1.284   .     S
O5     Co108   2.116   1_565 S
O6     C23     1.276   .     S
O6     Co27    2.119   .     S
O6     Co28    2.110   .     S
O7     C25     1.278   .     S
O7     Co27    2.080   .     S
O8     C15     1.245   .     S
O9     Co105   2.109   .     S
O9     C17     1.282   .     S
O10    C17     1.243   .     S
O11    Co107   2.066   .     S
O11    C23     1.238   1_554 S
O12    Co105   2.075   .     S
O12    C19     1.239   .     S
O13    Co105   2.073   1_565 S
O13    C21     1.233   .     S
O14    Co107   2.092   1_556 S
O14    C25     1.232   .     S
C15    H16     0.950   .     S
C17    H18     0.950   .     S
C19    H20     0.950   .     S
C21    H22     0.950   .     S
C23    O11     1.238   1_556 S
C23    H24     0.950   .     S
C25    H26     0.950   .     S
Co27   O31     2.047   .     S
Co27   O35     2.067   .     S
Co27   O82     2.115   .     S
Co28   O33     2.079   .     S
Co28   O34     2.052   1_565 S
Co28   O36     2.038   .     S
Co28   O56     2.115   .     S
O29    C41     1.274   .     S
O30    C45     1.270   .     S
O30    Co79    2.115   .     S
O30    Co54    2.115   .     S
O31    C47     1.284   1_556 S
O31    Co107   2.116   1_556 S
O32    C49     1.276   .     S
O33    C51     1.278   .     S
O33    Co1     2.080   1_565 S
O34    Co28    2.052   1_545 S
O34    C41     1.245   .     S
O35    Co106   2.109   1_556 S
O35    C43     1.282   .     S
O36    C43     1.243   .     S
O37    Co108   2.066   .     S
O37    C49     1.238   .     S
O38    Co106   2.075   .     S
O38    C45     1.239   1_455 S
O39    Co106   2.073   .     S
O39    C47     1.233   .     S
O40    Co108   2.092   1_655 S
O40    C51     1.232   1_645 S
C41    H42     0.950   .     S
C43    H44     0.950   .     S
C45    O38     1.239   1_655 S
C45    H46     0.950   .     S
C47    O31     1.284   1_554 S
C47    H48     0.950   .     S
C49    H50     0.950   .     S
C51    O40     1.232   1_465 S
C51    H52     0.950   1_455 S
H52    C51     0.950   1_655 S
Co53   O57     2.047   1_565 S
Co53   O61     2.067   .     S
Co53   O4      2.115   1_565 S
Co53   O84     2.119   .     S
Co53   O81     2.091   .     S
Co53   O85     2.080   1_565 S
Co54   O59     2.079   .     S
Co54   O60     2.052   .     S
Co54   O62     2.038   .     S
Co54   O84     2.110   .     S
Co54   O81     2.101   .     S
O55    C67     1.274   .     S
O55    Co79    2.091   .     S
O55    Co80    2.101   .     S
O56    C71     1.270   .     S
O56    Co1     2.115   1_565 S
O57    Co53    2.047   1_545 S
O57    C73     1.284   .     S
O57    Co108   2.116   1_655 S
O58    C75     1.276   .     S
O58    Co79    2.119   .     S
O58    Co80    2.110   .     S
O59    C77     1.278   .     S
O59    Co79    2.080   .     S
O60    C67     1.245   .     S
O61    Co105   2.109   1_565 S
O61    C69     1.282   .     S
O62    C69     1.243   .     S
O63    Co107   2.066   1_556 S
O63    C75     1.238   1_556 S
O64    Co105   2.075   1_565 S
O64    C71     1.239   .     S
O65    Co105   2.073   .     S
O65    C73     1.233   .     S
O66    Co107   2.092   .     S
O66    C77     1.232   .     S
C67    H68     0.950   .     S
C69    H70     0.950   .     S
C71    H72     0.950   .     S
C73    H74     0.950   .     S
C75    O63     1.238   1_554 S
C75    H76     0.950   .     S
C77    H78     0.950   .     S
Co79   O83     2.047   .     S
Co79   O87     2.067   .     S
Co80   O85     2.079   .     S
Co80   O86     2.052   1_545 S
Co80   O88     2.038   .     S
O81    C93     1.274   .     S
O82    C97     1.270   .     S
O83    C99     1.284   1_554 S
O83    Co107   2.116   .     S
O84    C101    1.276   .     S
O85    C103    1.278   .     S
O85    Co53    2.080   1_545 S
O86    Co80    2.052   1_565 S
O86    C93     1.245   .     S
O87    Co106   2.109   1_655 S
O87    C95     1.282   .     S
O88    C95     1.243   .     S
O89    Co108   2.066   1_665 S
O89    C101    1.238   .     S
O90    Co106   2.075   1_656 S
O90    C97     1.239   1_655 S
O91    Co106   2.073   1_656 S
O91    C99     1.233   .     S
O92    Co108   2.092   1_565 S
O92    C103    1.232   1_465 S
C93    H94     0.950   .     S
C95    H96     0.950   .     S
C97    O90     1.239   1_455 S
C97    H98     0.950   .     S
C99    O83     1.284   1_556 S
C99    H100    0.950   .     S
C101   H102    0.950   .     S
C103   O92     1.232   1_645 S
C103   H104    0.950   1_655 S
H104   C103    0.950   1_455 S
Co105  O61     2.109   1_545 S
Co105  O64     2.075   1_545 S
Co105  O13     2.073   1_545 S
Co106  O35     2.109   1_554 S
Co106  O87     2.109   1_455 S
Co106  O90     2.075   1_454 S
Co106  O91     2.073   1_454 S
Co107  O63     2.066   1_554 S
Co107  O14     2.092   1_554 S
Co107  O31     2.116   1_554 S
Co108  O89     2.066   1_445 S
Co108  O40     2.092   1_455 S
Co108  O92     2.092   1_545 S
Co108  O5      2.116   1_545 S
Co108  O57     2.116   1_455 S
