data_UCETEF_FSR
_audit_creation_date              2024-06-11
_audit_creation_method            'Materials Studio'
_symmetry_space_group_name_H-M    'P1'
_symmetry_Int_Tables_number       1
_symmetry_cell_setting            triclinic
loop_
_symmetry_equiv_pos_as_xyz
  x,y,z
_cell_length_a                    11.8870
_cell_length_b                    34.1480
_cell_length_c                    11.1310
_cell_angle_alpha                 90.0000
_cell_angle_beta                  103.3740
_cell_angle_gamma                 90.0000
loop_
_atom_site_label
_atom_site_type_symbol
_atom_site_fract_x
_atom_site_fract_y
_atom_site_fract_z
_atom_site_U_iso_or_equiv
_atom_site_adp_type
_atom_site_occupancy
Ni1    Ni    0.99274   0.65398   0.25575   0.00000  Uiso   1.00
P2     P     0.19756   0.64138   0.10300   0.00000  Uiso   1.00
P3     P     0.20366   0.33107   0.99960   0.00000  Uiso   1.00
P4     P     0.78871   0.63860   0.40603   0.00000  Uiso   1.00
P5     P     0.80938   0.33681   0.48620   0.00000  Uiso   1.00
S6     S     0.04660   0.74345   0.22200   0.00000  Uiso   1.00
O7     O     0.15160   0.65416   0.21470   0.00000  Uiso   1.00
O8     O     0.83300   0.65254   0.29700   0.00000  Uiso   1.00
O9     O     0.21530   0.30341   0.10510   0.00000  Uiso   1.00
O10    O     0.09320   0.63849   0.98690   0.00000  Uiso   1.00
H11    H     0.03112   0.64301   0.00831   0.00000  Uiso   1.00
O12    O     0.92690   0.35087   0.55690   0.00000  Uiso   1.00
O13    O     0.29100   0.66718   0.07720   0.00000  Uiso   1.00
O14    O     0.80600   0.31008   0.38090   0.00000  Uiso   1.00
O15    O     0.27210   0.31401   0.90460   0.00000  Uiso   1.00
H16    H     0.25137   0.32579   0.83681   0.00000  Uiso   1.00
O17    O     0.89250   0.63433   0.52160   0.00000  Uiso   1.00
H18    H     0.95513   0.63650   0.49952   0.00000  Uiso   1.00
O19    O     0.74540   0.31671   0.57900   0.00000  Uiso   1.00
H20    H     0.77100   0.32581   0.65016   0.00000  Uiso   1.00
O21    O     0.08110   0.33987   0.93130   0.00000  Uiso   1.00
O22    O     0.69530   0.66341   0.43670   0.00000  Uiso   1.00
O23    O     0.98820   0.71230   0.28010   0.00000  Uiso   1.00
O24    O     0.98250   0.59467   0.22840   0.00000  Uiso   1.00
C25    C     0.61080   0.38460   0.43650   0.00000  Uiso   1.00
H26    H     0.57354   0.36497   0.47356   0.00000  Uiso   1.00
N27    N     0.02100   0.53150   0.27610   0.00000  Uiso   1.00
C28    C     0.68770   0.57910   0.25030   0.00000  Uiso   1.00
H29    H     0.70071   0.59549   0.18585   0.00000  Uiso   1.00
C30    C     0.38840   0.38320   0.05650   0.00000  Uiso   1.00
H31    H     0.43178   0.36367   0.02623   0.00000  Uiso   1.00
C32    C     0.62860   0.54520   0.22130   0.00000  Uiso   1.00
H33    H     0.60122   0.53802   0.13708   0.00000  Uiso   1.00
C34    C     0.32250   0.53210   0.05480   0.00000  Uiso   1.00
H35    H     0.32995   0.51584   0.98786   0.00000  Uiso   1.00
C36    C     0.29950   0.57980   0.24890   0.00000  Uiso   1.00
H37    H     0.29049   0.59568   0.31619   0.00000  Uiso   1.00
C38    C     0.25530   0.59270   0.12880   0.00000  Uiso   1.00
C39    C     0.72090   0.44360   0.33320   0.00000  Uiso   1.00
H40    H     0.75890   0.46416   0.30095   0.00000  Uiso   1.00
C41    C     0.26100   0.44070   0.13970   0.00000  Uiso   1.00
H42    H     0.21646   0.46030   0.16777   0.00000  Uiso   1.00
C43    C     0.55040   0.41780   0.38700   0.00000  Uiso   1.00
H44    H     0.47135   0.42060   0.38926   0.00000  Uiso   1.00
C45    C     0.27130   0.37670   0.05230   0.00000  Uiso   1.00
C46    C     0.35600   0.54470   0.27180   0.00000  Uiso   1.00
H47    H     0.38727   0.53694   0.35473   0.00000  Uiso   1.00
C48    C     0.71260   0.56600   0.46630   0.00000  Uiso   1.00
H49    H     0.74267   0.57285   0.55031   0.00000  Uiso   1.00
C50    C     0.44190   0.41780   0.10440   0.00000  Uiso   1.00
H51    H     0.52173   0.42162   0.10769   0.00000  Uiso   1.00
C52    C     0.36830   0.52030   0.17620   0.00000  Uiso   1.00
C53    C     0.60770   0.52050   0.31430   0.00000  Uiso   1.00
C54    C     0.65080   0.53070   0.43710   0.00000  Uiso   1.00
H55    H     0.63862   0.51405   0.50120   0.00000  Uiso   1.00
C56    C     0.78230   0.40970   0.37980   0.00000  Uiso   1.00
H57    H     0.86091   0.40690   0.37587   0.00000  Uiso   1.00
C58    C     0.37910   0.44700   0.14790   0.00000  Uiso   1.00
C59    C     0.72810   0.38000   0.43180   0.00000  Uiso   1.00
C60    C     0.43660   0.48360   0.20520   0.00000  Uiso   1.00
C61    C     0.20860   0.40620   0.09120   0.00000  Uiso   1.00
H62    H     0.12812   0.40278   0.08443   0.00000  Uiso   1.00
C63    C     0.72990   0.59070   0.37340   0.00000  Uiso   1.00
C64    C     0.60470   0.44720   0.33400   0.00000  Uiso   1.00
C65    C     0.54230   0.48360   0.28100   0.00000  Uiso   1.00
C66    C     0.26550   0.56810   0.03220   0.00000  Uiso   1.00
H67    H     0.23320   0.57589   0.94944   0.00000  Uiso   1.00
C68    C     0.93480   0.76680   0.11170   0.00000  Uiso   1.00
H69    H     0.90825   0.74940   0.04092   0.00000  Uiso   1.00
H70    H     0.96443   0.79116   0.08394   0.00000  Uiso   1.00
H71    H     0.87010   0.77282   0.14954   0.00000  Uiso   1.00
C72    C     0.02610   0.56930   0.30100   0.00000  Uiso   1.00
H73    H     0.06653   0.57725   0.38112   0.00000  Uiso   1.00
C74    C     0.07260   0.78060   0.33560   0.00000  Uiso   1.00
H75    H     0.00158   0.78569   0.36366   0.00000  Uiso   1.00
H76    H     0.09666   0.80465   0.30039   0.00000  Uiso   1.00
H77    H     0.13379   0.77219   0.40582   0.00000  Uiso   1.00
C78    C     0.96350   0.51760   0.15680   0.00000  Uiso   1.00
H79    H     0.90760   0.49727   0.16545   0.00000  Uiso   1.00
H80    H     0.02045   0.50654   0.11513   0.00000  Uiso   1.00
H81    H     0.92288   0.53933   0.10779   0.00000  Uiso   1.00
C82    C     0.08130   0.50320   0.36470   0.00000  Uiso   1.00
H83    H     0.15005   0.49390   0.33901   0.00000  Uiso   1.00
H84    H     0.03000   0.48108   0.36908   0.00000  Uiso   1.00
H85    H     0.10463   0.51561   0.44614   0.00000  Uiso   1.00
Ni86   Ni    0.00726   0.15398   0.24425   0.00000  Uiso   1.00
P87    P     0.80244   0.14138   0.39700   0.00000  Uiso   1.00
P88    P     0.79634  -0.16893   0.50040   0.00000  Uiso   1.00
P89    P     0.21129   0.13860   0.09397   0.00000  Uiso   1.00
P90    P     0.19062  -0.16319   0.01380   0.00000  Uiso   1.00
S91    S     0.95340   0.24345   0.27800   0.00000  Uiso   1.00
O92    O     0.84840   0.15416   0.28530   0.00000  Uiso   1.00
O93    O     0.16700   0.15254   0.20300   0.00000  Uiso   1.00
O94    O     0.78470  -0.19659   0.39490   0.00000  Uiso   1.00
O95    O     0.90680   0.13849   0.51310   0.00000  Uiso   1.00
H96    H     0.96888   0.14301   0.49169   0.00000  Uiso   1.00
O97    O     0.07310  -0.14913   0.94310   0.00000  Uiso   1.00
O98    O     0.70900   0.16718   0.42280   0.00000  Uiso   1.00
O99    O     0.19400  -0.18992   0.11910   0.00000  Uiso   1.00
O100   O     0.72790  -0.18599   0.59540   0.00000  Uiso   1.00
H101   H     0.74863  -0.17421   0.66319   0.00000  Uiso   1.00
O102   O     0.10750   0.13433   0.97840   0.00000  Uiso   1.00
H103   H     0.04487   0.13650   0.00048   0.00000  Uiso   1.00
O104   O     0.25460  -0.18329   0.92100   0.00000  Uiso   1.00
H105   H     0.22900  -0.17419   0.84984   0.00000  Uiso   1.00
O106   O     0.91890  -0.16013   0.56870   0.00000  Uiso   1.00
O107   O     0.30470   0.16341   0.06330   0.00000  Uiso   1.00
O108   O     0.01180   0.21230   0.21990   0.00000  Uiso   1.00
O109   O     0.01750   0.09467   0.27160   0.00000  Uiso   1.00
C110   C     0.38920  -0.11540   0.06350   0.00000  Uiso   1.00
H111   H     0.42646  -0.13503   0.02644   0.00000  Uiso   1.00
N112   N     0.97900   0.03150   0.22390   0.00000  Uiso   1.00
C113   C     0.31230   0.07910   0.24970   0.00000  Uiso   1.00
H114   H     0.29929   0.09549   0.31415   0.00000  Uiso   1.00
C115   C     0.61160  -0.11680   0.44350   0.00000  Uiso   1.00
H116   H     0.56822  -0.13633   0.47377   0.00000  Uiso   1.00
C117   C     0.37140   0.04520   0.27870   0.00000  Uiso   1.00
H118   H     0.39878   0.03801   0.36292   0.00000  Uiso   1.00
C119   C     0.67750   0.03210   0.44520   0.00000  Uiso   1.00
H120   H     0.67005   0.01584   0.51214   0.00000  Uiso   1.00
C121   C     0.70050   0.07980   0.25110   0.00000  Uiso   1.00
H122   H     0.70951   0.09568   0.18381   0.00000  Uiso   1.00
C123   C     0.74470   0.09270   0.37120   0.00000  Uiso   1.00
C124   C     0.27910  -0.05640   0.16680   0.00000  Uiso   1.00
H125   H     0.24110  -0.03584   0.19905   0.00000  Uiso   1.00
C126   C     0.73900  -0.05930   0.36030   0.00000  Uiso   1.00
H127   H     0.78354  -0.03970   0.33223   0.00000  Uiso   1.00
C128   C     0.44960  -0.08220   0.11300   0.00000  Uiso   1.00
H129   H     0.52865  -0.07940   0.11074   0.00000  Uiso   1.00
C130   C     0.72870  -0.12330   0.44770   0.00000  Uiso   1.00
C131   C     0.64400   0.04470   0.22820   0.00000  Uiso   1.00
H132   H     0.61273   0.03694   0.14527   0.00000  Uiso   1.00
C133   C     0.28740   0.06600   0.03370   0.00000  Uiso   1.00
H134   H     0.25733   0.07285   0.94969   0.00000  Uiso   1.00
C135   C     0.55810  -0.08220   0.39560   0.00000  Uiso   1.00
H136   H     0.47827  -0.07838   0.39231   0.00000  Uiso   1.00
C137   C     0.63170   0.02030   0.32380   0.00000  Uiso   1.00
C138   C     0.39230   0.02050   0.18570   0.00000  Uiso   1.00
C139   C     0.34920   0.03070   0.06290   0.00000  Uiso   1.00
H140   H     0.36138   0.01405   0.99880   0.00000  Uiso   1.00
C141   C     0.21770  -0.09030   0.12020   0.00000  Uiso   1.00
H142   H     0.13909  -0.09310   0.12413   0.00000  Uiso   1.00
C143   C     0.62090  -0.05300   0.35210   0.00000  Uiso   1.00
C144   C     0.27190  -0.12000   0.06820   0.00000  Uiso   1.00
C145   C     0.56340  -0.01640   0.29480   0.00000  Uiso   1.00
C146   C     0.79140  -0.09380   0.40880   0.00000  Uiso   1.00
H147   H     0.87188  -0.09722   0.41557   0.00000  Uiso   1.00
C148   C     0.27010   0.09070   0.12660   0.00000  Uiso   1.00
C149   C     0.39530  -0.05280   0.16600   0.00000  Uiso   1.00
C150   C     0.45770  -0.01640   0.21900   0.00000  Uiso   1.00
C151   C     0.73450   0.06810   0.46780   0.00000  Uiso   1.00
H152   H     0.76680   0.07589   0.55056   0.00000  Uiso   1.00
C153   C     0.06520   0.26680   0.38830   0.00000  Uiso   1.00
H154   H     0.09175   0.24940   0.45908   0.00000  Uiso   1.00
H155   H     0.03557   0.29116   0.41606   0.00000  Uiso   1.00
H156   H     0.12989   0.27282   0.35046   0.00000  Uiso   1.00
C157   C     0.97390   0.06930   0.19900   0.00000  Uiso   1.00
H158   H     0.93347   0.07725   0.11888   0.00000  Uiso   1.00
C159   C     0.92740   0.28060   0.16440   0.00000  Uiso   1.00
H160   H     0.99842   0.28569   0.13634   0.00000  Uiso   1.00
H161   H     0.90334   0.30465   0.19961   0.00000  Uiso   1.00
H162   H     0.86621   0.27219   0.09418   0.00000  Uiso   1.00
C163   C     0.03650   0.01760   0.34320   0.00000  Uiso   1.00
H164   H     0.09240  -0.00273   0.33455   0.00000  Uiso   1.00
H165   H     0.97955   0.00654   0.38487   0.00000  Uiso   1.00
H166   H     0.07712   0.03933   0.39221   0.00000  Uiso   1.00
C167   C     0.91870   0.00320   0.13530   0.00000  Uiso   1.00
H168   H     0.84995  -0.00610   0.16099   0.00000  Uiso   1.00
H169   H     0.97000  -0.01892   0.13092   0.00000  Uiso   1.00
H170   H     0.89537   0.01561   0.05386   0.00000  Uiso   1.00
Ni171  Ni    0.00726   0.34602   0.74425   0.00000  Uiso   1.00
P172   P     0.80244   0.35862   0.89700   0.00000  Uiso   1.00
P173   P     0.79634   0.66893   0.00040   0.00000  Uiso   1.00
P174   P     0.21129   0.36140   0.59397   0.00000  Uiso   1.00
P175   P     0.19062   0.66319   0.51380   0.00000  Uiso   1.00
S176   S     0.95340   0.25655   0.77800   0.00000  Uiso   1.00
O177   O     0.84840   0.34584   0.78530   0.00000  Uiso   1.00
O178   O     0.16700   0.34746   0.70300   0.00000  Uiso   1.00
O179   O     0.78470   0.69659   0.89490   0.00000  Uiso   1.00
O180   O     0.90680   0.36151   0.01310   0.00000  Uiso   1.00
H181   H     0.96888   0.35699   0.99169   0.00000  Uiso   1.00
O182   O     0.07310   0.64913   0.44310   0.00000  Uiso   1.00
O183   O     0.70900   0.33282   0.92280   0.00000  Uiso   1.00
O184   O     0.19400   0.68992   0.61910   0.00000  Uiso   1.00
O185   O     0.72790   0.68599   0.09540   0.00000  Uiso   1.00
H186   H     0.74863   0.67421   0.16319   0.00000  Uiso   1.00
O187   O     0.10750   0.36567   0.47840   0.00000  Uiso   1.00
H188   H     0.04487   0.36350   0.50048   0.00000  Uiso   1.00
O189   O     0.25460   0.68329   0.42100   0.00000  Uiso   1.00
H190   H     0.22900   0.67419   0.34984   0.00000  Uiso   1.00
O191   O     0.91890   0.66013   0.06870   0.00000  Uiso   1.00
O192   O     0.30470   0.33659   0.56330   0.00000  Uiso   1.00
O193   O     0.01180   0.28770   0.71990   0.00000  Uiso   1.00
O194   O     0.01750   0.40533   0.77160   0.00000  Uiso   1.00
C195   C     0.38920   0.61540   0.56350   0.00000  Uiso   1.00
H196   H     0.42646   0.63503   0.52644   0.00000  Uiso   1.00
N197   N     0.97900   0.46850   0.72390   0.00000  Uiso   1.00
C198   C     0.31230   0.42090   0.74970   0.00000  Uiso   1.00
H199   H     0.29929   0.40451   0.81415   0.00000  Uiso   1.00
C200   C     0.61160   0.61680   0.94350   0.00000  Uiso   1.00
H201   H     0.56822   0.63633   0.97377   0.00000  Uiso   1.00
C202   C     0.37140   0.45480   0.77870   0.00000  Uiso   1.00
H203   H     0.39878   0.46198   0.86292   0.00000  Uiso   1.00
C204   C     0.67750   0.46790   0.94520   0.00000  Uiso   1.00
H205   H     0.67005   0.48416   0.01214   0.00000  Uiso   1.00
C206   C     0.70050   0.42020   0.75110   0.00000  Uiso   1.00
H207   H     0.70951   0.40432   0.68381   0.00000  Uiso   1.00
C208   C     0.74470   0.40730   0.87120   0.00000  Uiso   1.00
C209   C     0.27910   0.55640   0.66680   0.00000  Uiso   1.00
H210   H     0.24110   0.53584   0.69905   0.00000  Uiso   1.00
C211   C     0.73900   0.55930   0.86030   0.00000  Uiso   1.00
H212   H     0.78354   0.53970   0.83223   0.00000  Uiso   1.00
C213   C     0.44960   0.58220   0.61300   0.00000  Uiso   1.00
H214   H     0.52865   0.57940   0.61074   0.00000  Uiso   1.00
C215   C     0.72870   0.62330   0.94770   0.00000  Uiso   1.00
C216   C     0.64400   0.45530   0.72820   0.00000  Uiso   1.00
H217   H     0.61273   0.46306   0.64527   0.00000  Uiso   1.00
C218   C     0.28740   0.43400   0.53370   0.00000  Uiso   1.00
H219   H     0.25733   0.42715   0.44969   0.00000  Uiso   1.00
C220   C     0.55810   0.58220   0.89560   0.00000  Uiso   1.00
H221   H     0.47827   0.57838   0.89231   0.00000  Uiso   1.00
C222   C     0.63170   0.47970   0.82380   0.00000  Uiso   1.00
C223   C     0.39230   0.47950   0.68570   0.00000  Uiso   1.00
C224   C     0.34920   0.46930   0.56290   0.00000  Uiso   1.00
H225   H     0.36138   0.48595   0.49880   0.00000  Uiso   1.00
C226   C     0.21770   0.59030   0.62020   0.00000  Uiso   1.00
H227   H     0.13909   0.59310   0.62413   0.00000  Uiso   1.00
C228   C     0.62090   0.55300   0.85210   0.00000  Uiso   1.00
C229   C     0.27190   0.62000   0.56820   0.00000  Uiso   1.00
C230   C     0.56340   0.51640   0.79480   0.00000  Uiso   1.00
C231   C     0.79140   0.59380   0.90880   0.00000  Uiso   1.00
H232   H     0.87188   0.59722   0.91557   0.00000  Uiso   1.00
C233   C     0.27010   0.40930   0.62660   0.00000  Uiso   1.00
C234   C     0.39530   0.55280   0.66600   0.00000  Uiso   1.00
C235   C     0.45770   0.51640   0.71900   0.00000  Uiso   1.00
C236   C     0.73450   0.43190   0.96780   0.00000  Uiso   1.00
H237   H     0.76680   0.42411   0.05056   0.00000  Uiso   1.00
C238   C     0.06520   0.23320   0.88830   0.00000  Uiso   1.00
H239   H     0.09175   0.25060   0.95908   0.00000  Uiso   1.00
H240   H     0.03557   0.20884   0.91606   0.00000  Uiso   1.00
H241   H     0.12989   0.22718   0.85046   0.00000  Uiso   1.00
C242   C     0.97390   0.43070   0.69900   0.00000  Uiso   1.00
H243   H     0.93347   0.42275   0.61888   0.00000  Uiso   1.00
C244   C     0.92740   0.21940   0.66440   0.00000  Uiso   1.00
H245   H     0.99842   0.21431   0.63634   0.00000  Uiso   1.00
H246   H     0.90334   0.19535   0.69961   0.00000  Uiso   1.00
H247   H     0.86621   0.22781   0.59418   0.00000  Uiso   1.00
C248   C     0.03650   0.48240   0.84320   0.00000  Uiso   1.00
H249   H     0.09240   0.50273   0.83455   0.00000  Uiso   1.00
H250   H     0.97955   0.49346   0.88487   0.00000  Uiso   1.00
H251   H     0.07712   0.46067   0.89221   0.00000  Uiso   1.00
C252   C     0.91870   0.49680   0.63530   0.00000  Uiso   1.00
H253   H     0.84995   0.50610   0.66099   0.00000  Uiso   1.00
H254   H     0.97000   0.51892   0.63092   0.00000  Uiso   1.00
H255   H     0.89537   0.48439   0.55386   0.00000  Uiso   1.00
Ni256  Ni    0.99274  -0.15398   0.75575   0.00000  Uiso   1.00
P257   P     0.19756  -0.14138   0.60300   0.00000  Uiso   1.00
P258   P     0.20366   0.16893   0.49960   0.00000  Uiso   1.00
P259   P     0.78871  -0.13860   0.90603   0.00000  Uiso   1.00
P260   P     0.80938   0.16319   0.98620   0.00000  Uiso   1.00
S261   S     0.04660  -0.24345   0.72200   0.00000  Uiso   1.00
O262   O     0.15160  -0.15416   0.71470   0.00000  Uiso   1.00
O263   O     0.83300  -0.15254   0.79700   0.00000  Uiso   1.00
O264   O     0.21530   0.19659   0.60510   0.00000  Uiso   1.00
O265   O     0.09320  -0.13849   0.48690   0.00000  Uiso   1.00
H266   H     0.03112  -0.14301   0.50831   0.00000  Uiso   1.00
O267   O     0.92690   0.14913   0.05690   0.00000  Uiso   1.00
O268   O     0.29100  -0.16718   0.57720   0.00000  Uiso   1.00
O269   O     0.80600   0.18992   0.88090   0.00000  Uiso   1.00
O270   O     0.27210   0.18599   0.40460   0.00000  Uiso   1.00
H271   H     0.25137   0.17421   0.33681   0.00000  Uiso   1.00
O272   O     0.89250  -0.13433   0.02160   0.00000  Uiso   1.00
H273   H     0.95513  -0.13650   0.99952   0.00000  Uiso   1.00
O274   O     0.74540   0.18329   0.07900   0.00000  Uiso   1.00
H275   H     0.77100   0.17419   0.15016   0.00000  Uiso   1.00
O276   O     0.08110   0.16013   0.43130   0.00000  Uiso   1.00
O277   O     0.69530  -0.16341   0.93670   0.00000  Uiso   1.00
O278   O     0.98820  -0.21230   0.78010   0.00000  Uiso   1.00
O279   O     0.98250  -0.09467   0.72840   0.00000  Uiso   1.00
C280   C     0.61080   0.11540   0.93650   0.00000  Uiso   1.00
H281   H     0.57354   0.13503   0.97356   0.00000  Uiso   1.00
N282   N     0.02100  -0.03150   0.77610   0.00000  Uiso   1.00
C283   C     0.68770  -0.07910   0.75030   0.00000  Uiso   1.00
H284   H     0.70071  -0.09549   0.68585   0.00000  Uiso   1.00
C285   C     0.38840   0.11680   0.55650   0.00000  Uiso   1.00
H286   H     0.43178   0.13633   0.52623   0.00000  Uiso   1.00
C287   C     0.62860  -0.04520   0.72130   0.00000  Uiso   1.00
H288   H     0.60122  -0.03801   0.63708   0.00000  Uiso   1.00
C289   C     0.32250  -0.03210   0.55480   0.00000  Uiso   1.00
H290   H     0.32995  -0.01584   0.48786   0.00000  Uiso   1.00
C291   C     0.29950  -0.07980   0.74890   0.00000  Uiso   1.00
H292   H     0.29049  -0.09568   0.81619   0.00000  Uiso   1.00
C293   C     0.25530  -0.09270   0.62880   0.00000  Uiso   1.00
C294   C     0.72090   0.05640   0.83320   0.00000  Uiso   1.00
H295   H     0.75890   0.03584   0.80095   0.00000  Uiso   1.00
C296   C     0.26100   0.05930   0.63970   0.00000  Uiso   1.00
H297   H     0.21646   0.03970   0.66777   0.00000  Uiso   1.00
C298   C     0.55040   0.08220   0.88700   0.00000  Uiso   1.00
H299   H     0.47135   0.07940   0.88926   0.00000  Uiso   1.00
C300   C     0.27130   0.12330   0.55230   0.00000  Uiso   1.00
C301   C     0.35600  -0.04470   0.77180   0.00000  Uiso   1.00
H302   H     0.38727  -0.03694   0.85473   0.00000  Uiso   1.00
C303   C     0.71260  -0.06600   0.96630   0.00000  Uiso   1.00
H304   H     0.74267  -0.07285   0.05031   0.00000  Uiso   1.00
C305   C     0.44190   0.08220   0.60440   0.00000  Uiso   1.00
H306   H     0.52173   0.07838   0.60769   0.00000  Uiso   1.00
C307   C     0.36830  -0.02030   0.67620   0.00000  Uiso   1.00
C308   C     0.60770  -0.02050   0.81430   0.00000  Uiso   1.00
C309   C     0.65080  -0.03070   0.93710   0.00000  Uiso   1.00
H310   H     0.63862  -0.01405   0.00120   0.00000  Uiso   1.00
C311   C     0.78230   0.09030   0.87980   0.00000  Uiso   1.00
H312   H     0.86091   0.09310   0.87587   0.00000  Uiso   1.00
C313   C     0.37910   0.05300   0.64790   0.00000  Uiso   1.00
C314   C     0.72810   0.12000   0.93180   0.00000  Uiso   1.00
C315   C     0.43660   0.01640   0.70520   0.00000  Uiso   1.00
C316   C     0.20860   0.09380   0.59120   0.00000  Uiso   1.00
H317   H     0.12812   0.09722   0.58443   0.00000  Uiso   1.00
C318   C     0.72990  -0.09070   0.87340   0.00000  Uiso   1.00
C319   C     0.60470   0.05280   0.83400   0.00000  Uiso   1.00
C320   C     0.54230   0.01640   0.78100   0.00000  Uiso   1.00
C321   C     0.26550  -0.06810   0.53220   0.00000  Uiso   1.00
H322   H     0.23320  -0.07589   0.44944   0.00000  Uiso   1.00
C323   C     0.93480  -0.26680   0.61170   0.00000  Uiso   1.00
H324   H     0.90825  -0.24940   0.54092   0.00000  Uiso   1.00
H325   H     0.96443  -0.29116   0.58394   0.00000  Uiso   1.00
H326   H     0.87010  -0.27282   0.64954   0.00000  Uiso   1.00
C327   C     0.02610  -0.06930   0.80100   0.00000  Uiso   1.00
H328   H     0.06653  -0.07725   0.88112   0.00000  Uiso   1.00
C329   C     0.07260  -0.28060   0.83560   0.00000  Uiso   1.00
H330   H     0.00158  -0.28569   0.86366   0.00000  Uiso   1.00
H331   H     0.09666  -0.30465   0.80039   0.00000  Uiso   1.00
H332   H     0.13379  -0.27219   0.90582   0.00000  Uiso   1.00
C333   C     0.96350  -0.01760   0.65680   0.00000  Uiso   1.00
H334   H     0.90760   0.00273   0.66545   0.00000  Uiso   1.00
H335   H     0.02045  -0.00654   0.61513   0.00000  Uiso   1.00
H336   H     0.92288  -0.03933   0.60779   0.00000  Uiso   1.00
C337   C     0.08130  -0.00320   0.86470   0.00000  Uiso   1.00
H338   H     0.15005   0.00610   0.83901   0.00000  Uiso   1.00
H339   H     0.03000   0.01892   0.86908   0.00000  Uiso   1.00
H340   H     0.10463  -0.01561   0.94614   0.00000  Uiso   1.00
loop_
_geom_bond_atom_site_label_1
_geom_bond_atom_site_label_2
_geom_bond_distance
_geom_bond_site_symmetry_2
_ccdc_geom_bond_type
Ni1    O7      2.043   1_655 S
Ni1    O23     2.012   .     S
Ni1    O24     2.048   .     S
Ni1    O8      2.055   .     S
Ni1    O182    2.090   1_655 S
Ni1    O191    2.075   .     S
P2     O7      1.533   .     S
P2     O10     1.574   1_554 S
P2     O13     1.497   .     S
P2     C38     1.796   .     S
P3     O9      1.488   1_556 S
P3     O15     1.587   .     S
P3     O21     1.509   .     S
P3     C45     1.789   1_556 S
P4     O8      1.507   .     S
P4     O17     1.570   .     S
P4     O22     1.498   .     S
P4     C63     1.783   .     S
P5     O12     1.514   .     S
P5     O14     1.479   .     S
P5     O19     1.575   .     S
P5     C59     1.790   .     S
S6     O23     1.496   1_455 S
S6     C68     1.776   1_455 S
S6     C74     1.767   .     S
O7     Ni1     2.043   1_455 S
O9     P3      1.488   1_554 S
O10    P2      1.574   1_556 S
O10    H11     0.841   1_556 S
H11    O10     0.841   1_554 S
O12    Ni171   2.090   1_655 S
O15    H16     0.840   .     S
O17    H18     0.839   .     S
O19    H20     0.840   .     S
O21    Ni171   2.075   .     S
O23    S6      1.496   1_655 S
O24    C72     1.216   1_655 S
C25    H26     0.949   .     S
C25    C43     1.386   .     S
C25    C59     1.416   .     S
N27    C72     1.319   .     S
N27    C78     1.427   1_455 S
N27    C82     1.447   .     S
C28    H29     0.950   .     S
C28    C32     1.354   .     S
C28    C63     1.403   .     S
C30    H31     0.951   .     S
C30    C50     1.388   .     S
C30    C45     1.400   .     S
C32    H33     0.951   .     S
C32    C53     1.401   .     S
C34    H35     0.950   1_554 S
C34    C52     1.394   .     S
C34    C66     1.398   .     S
H35    C34     0.950   1_556 S
C36    H37     0.951   .     S
C36    C46     1.369   .     S
C36    C38     1.390   .     S
C38    C66     1.392   .     S
C39    H40     0.949   .     S
C39    C56     1.402   .     S
C39    C64     1.389   .     S
C41    H42     0.950   .     S
C41    C58     1.402   .     S
C41    C61     1.383   .     S
C43    H44     0.951   .     S
C43    C64     1.396   .     S
C45    P3      1.789   1_554 S
C45    C61     1.381   .     S
C46    H47     0.950   .     S
C46    C52     1.386   .     S
C48    H49     0.950   .     S
C48    C54     1.410   .     S
C48    C63     1.386   .     S
C50    H51     0.950   .     S
C50    C58     1.398   .     S
C52    C60     1.488   .     S
C53    C65     1.482   .     S
C53    C54     1.389   .     S
C54    H55     0.949   .     S
C56    H57     0.950   .     S
C56    C59     1.397   .     S
C58    C60     1.495   .     S
C60    C65     1.342   .     S
C61    H62     0.949   .     S
C64    C65     1.497   .     S
C66    H67     0.950   1_554 S
H67    C66     0.950   1_556 S
C68    S6      1.776   1_655 S
C68    H69     0.979   .     S
C68    H70     0.981   .     S
C68    H71     0.980   .     S
C72    O24     1.216   1_455 S
C72    H73     0.950   .     S
C74    H75     0.981   .     S
C74    H76     0.981   .     S
C74    H77     0.979   .     S
C78    N27     1.427   1_655 S
C78    H79     0.981   .     S
C78    H80     0.980   1_655 S
C78    H81     0.979   .     S
H80    C78     0.980   1_455 S
C82    H83     0.979   .     S
C82    H84     0.979   .     S
C82    H85     0.981   .     S
Ni86   O92     2.043   1_455 S
Ni86   O108    2.012   .     S
Ni86   O109    2.048   .     S
Ni86   O93     2.055   .     S
Ni86   O267    2.090   1_455 S
Ni86   O276    2.075   .     S
P87    O92     1.533   .     S
P87    O95     1.574   .     S
P87    O98     1.497   .     S
P87    C123    1.796   .     S
P88    O94     1.488   .     S
P88    O100    1.587   .     S
P88    O106    1.509   .     S
P88    C130    1.789   .     S
P89    O93     1.507   .     S
P89    O102    1.570   1_554 S
P89    O107    1.498   .     S
P89    C148    1.783   .     S
P90    O97     1.514   1_554 S
P90    O99     1.479   .     S
P90    O104    1.575   1_554 S
P90    C144    1.790   .     S
S91    O108    1.496   1_655 S
S91    C153    1.776   1_655 S
S91    C159    1.767   .     S
O92    Ni86    2.043   1_655 S
O95    H96     0.841   .     S
O97    P90     1.514   1_556 S
O97    Ni256   2.090   1_455 S
O100   H101    0.840   .     S
O102   P89     1.570   1_556 S
O102   H103    0.839   1_556 S
H103   O102    0.839   1_554 S
O104   P90     1.575   1_556 S
O104   H105    0.840   .     S
O106   Ni256   2.075   .     S
O108   S91     1.496   1_455 S
O109   C157    1.216   1_455 S
C110   H111    0.949   .     S
C110   C128    1.386   .     S
C110   C144    1.416   .     S
N112   C157    1.319   .     S
N112   C163    1.427   1_655 S
N112   C167    1.447   .     S
C113   H114    0.950   .     S
C113   C117    1.354   .     S
C113   C148    1.403   .     S
C115   H116    0.951   .     S
C115   C135    1.388   .     S
C115   C130    1.400   .     S
C117   H118    0.951   .     S
C117   C138    1.401   .     S
C119   H120    0.950   .     S
C119   C137    1.394   .     S
C119   C151    1.398   .     S
C121   H122    0.951   .     S
C121   C131    1.369   .     S
C121   C123    1.390   .     S
C123   C151    1.392   .     S
C124   H125    0.949   .     S
C124   C141    1.402   .     S
C124   C149    1.389   .     S
C126   H127    0.950   .     S
C126   C143    1.402   .     S
C126   C146    1.383   .     S
C128   H129    0.951   .     S
C128   C149    1.396   .     S
C130   C146    1.381   .     S
C131   H132    0.950   .     S
C131   C137    1.386   .     S
C133   H134    0.950   1_554 S
C133   C139    1.410   .     S
C133   C148    1.386   .     S
H134   C133    0.950   1_556 S
C135   H136    0.950   .     S
C135   C143    1.398   .     S
C137   C145    1.488   .     S
C138   C150    1.482   .     S
C138   C139    1.389   .     S
C139   H140    0.949   1_554 S
H140   C139    0.949   1_556 S
C141   H142    0.950   .     S
C141   C144    1.397   .     S
C143   C145    1.495   .     S
C145   C150    1.342   .     S
C146   H147    0.949   .     S
C149   C150    1.497   .     S
C151   H152    0.950   .     S
C153   S91     1.776   1_455 S
C153   H154    0.979   .     S
C153   H155    0.981   .     S
C153   H156    0.980   .     S
C157   O109    1.216   1_655 S
C157   H158    0.950   .     S
C159   H160    0.981   .     S
C159   H161    0.981   .     S
C159   H162    0.979   .     S
C163   N112    1.427   1_455 S
C163   H164    0.981   .     S
C163   H165    0.980   1_455 S
C163   H166    0.979   .     S
H165   C163    0.980   1_655 S
C167   H168    0.979   .     S
C167   H169    0.979   .     S
C167   H170    0.981   .     S
Ni171  O177    2.043   1_455 S
Ni171  O193    2.012   .     S
Ni171  O194    2.048   .     S
Ni171  O178    2.055   .     S
Ni171  O12     2.090   1_455 S
P172   O177    1.533   .     S
P172   O180    1.574   1_556 S
P172   O183    1.497   .     S
P172   C208    1.796   .     S
P173   O179    1.488   1_554 S
P173   O185    1.587   .     S
P173   O191    1.509   .     S
P173   C215    1.789   1_554 S
P174   O178    1.507   .     S
P174   O187    1.570   .     S
P174   O192    1.498   .     S
P174   C233    1.783   .     S
P175   O182    1.514   .     S
P175   O184    1.479   .     S
P175   O189    1.575   .     S
P175   C229    1.790   .     S
S176   O193    1.496   1_655 S
S176   C238    1.776   1_655 S
S176   C244    1.767   .     S
O177   Ni171   2.043   1_655 S
O179   P173    1.488   1_556 S
O180   P172    1.574   1_554 S
O180   H181    0.841   1_554 S
H181   O180    0.841   1_556 S
O182   Ni1     2.090   1_455 S
O185   H186    0.840   .     S
O187   H188    0.839   .     S
O189   H190    0.840   .     S
O193   S176    1.496   1_455 S
O194   C242    1.216   1_455 S
C195   H196    0.949   .     S
C195   C213    1.386   .     S
C195   C229    1.416   .     S
N197   C242    1.319   .     S
N197   C248    1.427   1_655 S
N197   C252    1.447   .     S
C198   H199    0.950   .     S
C198   C202    1.354   .     S
C198   C233    1.403   .     S
C200   H201    0.951   .     S
C200   C220    1.388   .     S
C200   C215    1.400   .     S
C202   H203    0.951   .     S
C202   C223    1.401   .     S
C204   H205    0.950   1_556 S
C204   C222    1.394   .     S
C204   C236    1.398   .     S
H205   C204    0.950   1_554 S
C206   H207    0.951   .     S
C206   C216    1.369   .     S
C206   C208    1.390   .     S
C208   C236    1.392   .     S
C209   H210    0.949   .     S
C209   C226    1.402   .     S
C209   C234    1.389   .     S
C211   H212    0.950   .     S
C211   C228    1.402   .     S
C211   C231    1.383   .     S
C213   H214    0.951   .     S
C213   C234    1.396   .     S
C215   P173    1.789   1_556 S
C215   C231    1.381   .     S
C216   H217    0.950   .     S
C216   C222    1.386   .     S
C218   H219    0.950   .     S
C218   C224    1.410   .     S
C218   C233    1.386   .     S
C220   H221    0.950   .     S
C220   C228    1.398   .     S
C222   C230    1.488   .     S
C223   C235    1.482   .     S
C223   C224    1.389   .     S
C224   H225    0.949   .     S
C226   H227    0.950   .     S
C226   C229    1.397   .     S
C228   C230    1.495   .     S
C230   C235    1.342   .     S
C231   H232    0.949   .     S
C234   C235    1.497   .     S
C236   H237    0.950   1_556 S
H237   C236    0.950   1_554 S
C238   S176    1.776   1_455 S
C238   H239    0.979   .     S
C238   H240    0.981   .     S
C238   H241    0.980   .     S
C242   O194    1.216   1_655 S
C242   H243    0.950   .     S
C244   H245    0.981   .     S
C244   H246    0.981   .     S
C244   H247    0.979   .     S
C248   N197    1.427   1_455 S
C248   H249    0.981   .     S
C248   H250    0.980   1_455 S
C248   H251    0.979   .     S
H250   C248    0.980   1_655 S
C252   H253    0.979   .     S
C252   H254    0.979   .     S
C252   H255    0.981   .     S
Ni256  O262    2.043   1_655 S
Ni256  O278    2.012   .     S
Ni256  O279    2.048   .     S
Ni256  O263    2.055   .     S
Ni256  O97     2.090   1_655 S
P257   O262    1.533   .     S
P257   O265    1.574   .     S
P257   O268    1.497   .     S
P257   C293    1.796   .     S
P258   O264    1.488   .     S
P258   O270    1.587   .     S
P258   O276    1.509   .     S
P258   C300    1.789   .     S
P259   O263    1.507   .     S
P259   O272    1.570   1_556 S
P259   O277    1.498   .     S
P259   C318    1.783   .     S
P260   O267    1.514   1_556 S
P260   O269    1.479   .     S
P260   O274    1.575   1_556 S
P260   C314    1.790   .     S
S261   O278    1.496   1_455 S
S261   C323    1.776   1_455 S
S261   C329    1.767   .     S
O262   Ni256   2.043   1_455 S
O265   H266    0.841   .     S
O267   P260    1.514   1_554 S
O267   Ni86    2.090   1_655 S
O270   H271    0.840   .     S
O272   P259    1.570   1_554 S
O272   H273    0.839   1_554 S
H273   O272    0.839   1_556 S
O274   P260    1.575   1_554 S
O274   H275    0.840   .     S
O278   S261    1.496   1_655 S
O279   C327    1.216   1_655 S
C280   H281    0.949   .     S
C280   C298    1.386   .     S
C280   C314    1.416   .     S
N282   C327    1.319   .     S
N282   C333    1.427   1_455 S
N282   C337    1.447   .     S
C283   H284    0.950   .     S
C283   C287    1.354   .     S
C283   C318    1.403   .     S
C285   H286    0.951   .     S
C285   C305    1.388   .     S
C285   C300    1.400   .     S
C287   H288    0.951   .     S
C287   C308    1.401   .     S
C289   H290    0.950   .     S
C289   C307    1.394   .     S
C289   C321    1.398   .     S
C291   H292    0.951   .     S
C291   C301    1.369   .     S
C291   C293    1.390   .     S
C293   C321    1.392   .     S
C294   H295    0.949   .     S
C294   C311    1.402   .     S
C294   C319    1.389   .     S
C296   H297    0.950   .     S
C296   C313    1.402   .     S
C296   C316    1.383   .     S
C298   H299    0.951   .     S
C298   C319    1.396   .     S
C300   C316    1.381   .     S
C301   H302    0.950   .     S
C301   C307    1.386   .     S
C303   H304    0.950   1_556 S
C303   C309    1.410   .     S
C303   C318    1.386   .     S
H304   C303    0.950   1_554 S
C305   H306    0.950   .     S
C305   C313    1.398   .     S
C307   C315    1.488   .     S
C308   C320    1.482   .     S
C308   C309    1.389   .     S
C309   H310    0.949   1_556 S
H310   C309    0.949   1_554 S
C311   H312    0.950   .     S
C311   C314    1.397   .     S
C313   C315    1.495   .     S
C315   C320    1.342   .     S
C316   H317    0.949   .     S
C319   C320    1.497   .     S
C321   H322    0.950   .     S
C323   S261    1.776   1_655 S
C323   H324    0.979   .     S
C323   H325    0.981   .     S
C323   H326    0.980   .     S
C327   O279    1.216   1_455 S
C327   H328    0.950   .     S
C329   H330    0.981   .     S
C329   H331    0.981   .     S
C329   H332    0.979   .     S
C333   N282    1.427   1_655 S
C333   H334    0.981   .     S
C333   H335    0.980   1_655 S
C333   H336    0.979   .     S
H335   C333    0.980   1_455 S
C337   H338    0.979   .     S
C337   H339    0.979   .     S
C337   H340    0.981   .     S
