data_UDOBAU_FSR
_audit_creation_date              2024-06-11
_audit_creation_method            'Materials Studio'
_symmetry_space_group_name_H-M    'P1'
_symmetry_Int_Tables_number       1
_symmetry_cell_setting            triclinic
loop_
_symmetry_equiv_pos_as_xyz
  x,y,z
_cell_length_a                    22.9380
_cell_length_b                    7.9268
_cell_length_c                    14.9860
_cell_angle_alpha                 90.0000
_cell_angle_beta                  100.3910
_cell_angle_gamma                 90.0000
loop_
_atom_site_label
_atom_site_type_symbol
_atom_site_fract_x
_atom_site_fract_y
_atom_site_fract_z
_atom_site_U_iso_or_equiv
_atom_site_adp_type
_atom_site_occupancy
Cu1    Cu    0.46369   0.35158   0.12204   0.00000  Uiso   1.00
P2     P     0.68167   0.80040   0.16202   0.00000  Uiso   1.00
O3     O     0.65238   0.63660   0.13690   0.00000  Uiso   1.00
O4     O     0.72198   0.85400   0.09641   0.00000  Uiso   1.00
H5     H     0.74440   0.95340   0.11670   0.00000  Uiso   1.00
O6     O     0.71972   0.81120   0.25901   0.00000  Uiso   1.00
H7     H     0.71100   0.72010   0.29670   0.00000  Uiso   1.00
N8     N     0.53407   0.19860   0.14219   0.00000  Uiso   1.00
N9     N     0.42128   0.12840   0.10649   0.00000  Uiso   1.00
C10    C     0.45719   0.99290   0.11083   0.00000  Uiso   1.00
C11    C     0.63711   0.13230   0.16830   0.00000  Uiso   1.00
H12    H     0.67620   0.16920   0.18140   0.00000  Uiso   1.00
C13    C     0.56534   0.91140   0.13691   0.00000  Uiso   1.00
H14    H     0.55550   0.79800   0.12830   0.00000  Uiso   1.00
C15    C     0.59119   0.24670   0.16075   0.00000  Uiso   1.00
H16    H     0.60000   0.36080   0.16880   0.00000  Uiso   1.00
C17    C     0.62454   0.96100   0.15616   0.00000  Uiso   1.00
C18    C     0.52122   0.03240   0.13072   0.00000  Uiso   1.00
C19    C     0.36237   0.10490   0.09085   0.00000  Uiso   1.00
H20    H     0.33760   0.19840   0.08830   0.00000  Uiso   1.00
C21    C     0.43487   0.83150   0.09878   0.00000  Uiso   1.00
H22    H     0.46050   0.73990   0.10160   0.00000  Uiso   1.00
C23    C     0.37391   0.80640   0.08247   0.00000  Uiso   1.00
C24    C     0.33727   0.94590   0.07838   0.00000  Uiso   1.00
H25    H     0.29630   0.93300   0.06740   0.00000  Uiso   1.00
P26    P     0.34287   0.59635   0.06856   0.00000  Uiso   1.00
O27    O     0.38953   0.46860   0.09946   0.00000  Uiso   1.00
O28    O     0.29304   0.59660   0.12118   0.00000  Uiso   1.00
O29    O     0.31493   0.58030   0.96640   0.00000  Uiso   1.00
H30    H     0.33400   0.49400   0.93710   0.00000  Uiso   1.00
Cu31   Cu   -0.03631   0.85158   0.12204   0.00000  Uiso   1.00
P32    P     0.18167   0.30040   0.16202   0.00000  Uiso   1.00
O33    O     0.15238   0.13660   0.13690   0.00000  Uiso   1.00
O34    O     0.22198   0.35400   0.09641   0.00000  Uiso   1.00
H35    H     0.24440   0.45340   0.11670   0.00000  Uiso   1.00
O36    O     0.21972   0.31120   0.25901   0.00000  Uiso   1.00
H37    H     0.21100   0.22010   0.29670   0.00000  Uiso   1.00
N38    N     0.03407   0.69860   0.14219   0.00000  Uiso   1.00
N39    N    -0.07872   0.62840   0.10649   0.00000  Uiso   1.00
C40    C    -0.04281   0.49290   0.11083   0.00000  Uiso   1.00
C41    C     0.13711   0.63230   0.16830   0.00000  Uiso   1.00
H42    H     0.17620   0.66920   0.18140   0.00000  Uiso   1.00
C43    C     0.06534   0.41140   0.13691   0.00000  Uiso   1.00
H44    H     0.05550   0.29800   0.12830   0.00000  Uiso   1.00
C45    C     0.09119   0.74670   0.16075   0.00000  Uiso   1.00
H46    H     0.10000   0.86080   0.16880   0.00000  Uiso   1.00
C47    C     0.12454   0.46100   0.15616   0.00000  Uiso   1.00
C48    C     0.02122   0.53240   0.13072   0.00000  Uiso   1.00
C49    C    -0.13763   0.60490   0.09085   0.00000  Uiso   1.00
H50    H    -0.16240   0.69840   0.08830   0.00000  Uiso   1.00
C51    C    -0.06513   0.33150   0.09878   0.00000  Uiso   1.00
H52    H    -0.03950   0.23990   0.10160   0.00000  Uiso   1.00
C53    C    -0.12609   0.30640   0.08247   0.00000  Uiso   1.00
C54    C    -0.16273   0.44590   0.07838   0.00000  Uiso   1.00
H55    H    -0.20370   0.43300   0.06740   0.00000  Uiso   1.00
P56    P    -0.15713   0.09635   0.06856   0.00000  Uiso   1.00
O57    O    -0.11047   0.96860   0.09946   0.00000  Uiso   1.00
O58    O    -0.20696   0.09660   0.12118   0.00000  Uiso   1.00
O59    O    -0.18507   0.08030   0.96640   0.00000  Uiso   1.00
H60    H    -0.16600   0.99400   0.93710   0.00000  Uiso   1.00
Cu61   Cu    0.53631   0.35158   0.37796   0.00000  Uiso   1.00
P62    P     0.31833   0.80040   0.33798   0.00000  Uiso   1.00
O63    O     0.34762   0.63660   0.36310   0.00000  Uiso   1.00
O64    O     0.27802   0.85400   0.40359   0.00000  Uiso   1.00
H65    H     0.25560   0.95340   0.38330   0.00000  Uiso   1.00
O66    O     0.28028   0.81120   0.24099   0.00000  Uiso   1.00
H67    H     0.28900   0.72010   0.20330   0.00000  Uiso   1.00
N68    N     0.46593   0.19860   0.35781   0.00000  Uiso   1.00
N69    N     0.57872   0.12840   0.39351   0.00000  Uiso   1.00
C70    C     0.54281   0.99290   0.38917   0.00000  Uiso   1.00
C71    C     0.36289   0.13230   0.33170   0.00000  Uiso   1.00
H72    H     0.32380   0.16920   0.31860   0.00000  Uiso   1.00
C73    C     0.43466   0.91140   0.36309   0.00000  Uiso   1.00
H74    H     0.44450   0.79800   0.37170   0.00000  Uiso   1.00
C75    C     0.40881   0.24670   0.33925   0.00000  Uiso   1.00
H76    H     0.40000   0.36080   0.33120   0.00000  Uiso   1.00
C77    C     0.37546   0.96100   0.34384   0.00000  Uiso   1.00
C78    C     0.47878   0.03240   0.36928   0.00000  Uiso   1.00
C79    C     0.63763   0.10490   0.40915   0.00000  Uiso   1.00
H80    H     0.66240   0.19840   0.41170   0.00000  Uiso   1.00
C81    C     0.56513   0.83150   0.40122   0.00000  Uiso   1.00
H82    H     0.53950   0.73990   0.39840   0.00000  Uiso   1.00
C83    C     0.62609   0.80640   0.41753   0.00000  Uiso   1.00
C84    C     0.66273   0.94590   0.42162   0.00000  Uiso   1.00
H85    H     0.70370   0.93300   0.43260   0.00000  Uiso   1.00
P86    P     0.65713   0.59635   0.43144   0.00000  Uiso   1.00
O87    O     0.61047   0.46860   0.40054   0.00000  Uiso   1.00
O88    O     0.70696   0.59660   0.37882   0.00000  Uiso   1.00
O89    O     0.68507   0.58030   0.53360   0.00000  Uiso   1.00
H90    H     0.66600   0.49400   0.56290   0.00000  Uiso   1.00
Cu91   Cu    0.03631   0.85158   0.37796   0.00000  Uiso   1.00
P92    P    -0.18167   0.30040   0.33798   0.00000  Uiso   1.00
O93    O    -0.15238   0.13660   0.36310   0.00000  Uiso   1.00
O94    O    -0.22198   0.35400   0.40359   0.00000  Uiso   1.00
H95    H    -0.24440   0.45340   0.38330   0.00000  Uiso   1.00
O96    O    -0.21972   0.31120   0.24099   0.00000  Uiso   1.00
H97    H    -0.21100   0.22010   0.20330   0.00000  Uiso   1.00
N98    N    -0.03407   0.69860   0.35781   0.00000  Uiso   1.00
N99    N     0.07872   0.62840   0.39351   0.00000  Uiso   1.00
C100   C     0.04281   0.49290   0.38917   0.00000  Uiso   1.00
C101   C    -0.13711   0.63230   0.33170   0.00000  Uiso   1.00
H102   H    -0.17620   0.66920   0.31860   0.00000  Uiso   1.00
C103   C    -0.06534   0.41140   0.36309   0.00000  Uiso   1.00
H104   H    -0.05550   0.29800   0.37170   0.00000  Uiso   1.00
C105   C    -0.09119   0.74670   0.33925   0.00000  Uiso   1.00
H106   H    -0.10000   0.86080   0.33120   0.00000  Uiso   1.00
C107   C    -0.12454   0.46100   0.34384   0.00000  Uiso   1.00
C108   C    -0.02122   0.53240   0.36928   0.00000  Uiso   1.00
C109   C     0.13763   0.60490   0.40915   0.00000  Uiso   1.00
H110   H     0.16240   0.69840   0.41170   0.00000  Uiso   1.00
C111   C     0.06513   0.33150   0.40122   0.00000  Uiso   1.00
H112   H     0.03950   0.23990   0.39840   0.00000  Uiso   1.00
C113   C     0.12609   0.30640   0.41753   0.00000  Uiso   1.00
C114   C     0.16273   0.44590   0.42162   0.00000  Uiso   1.00
H115   H     0.20370   0.43300   0.43260   0.00000  Uiso   1.00
P116   P     0.15713   0.09635   0.43144   0.00000  Uiso   1.00
O117   O     0.11047   0.96860   0.40054   0.00000  Uiso   1.00
O118   O     0.20696   0.09660   0.37882   0.00000  Uiso   1.00
O119   O     0.18507   0.08030   0.53360   0.00000  Uiso   1.00
H120   H     0.16600   0.99400   0.56290   0.00000  Uiso   1.00
Cu121  Cu    0.53631   0.64842   0.87796   0.00000  Uiso   1.00
P122   P     0.31833   0.19960   0.83798   0.00000  Uiso   1.00
O123   O     0.34762   0.36340   0.86310   0.00000  Uiso   1.00
O124   O     0.27802   0.14600   0.90359   0.00000  Uiso   1.00
H125   H     0.25560   0.04660   0.88330   0.00000  Uiso   1.00
O126   O     0.28028   0.18880   0.74099   0.00000  Uiso   1.00
H127   H     0.28900   0.27990   0.70330   0.00000  Uiso   1.00
N128   N     0.46593   0.80140   0.85781   0.00000  Uiso   1.00
N129   N     0.57872   0.87160   0.89351   0.00000  Uiso   1.00
C130   C     0.54281   0.00710   0.88917   0.00000  Uiso   1.00
C131   C     0.36289   0.86770   0.83170   0.00000  Uiso   1.00
H132   H     0.32380   0.83080   0.81860   0.00000  Uiso   1.00
C133   C     0.43466   0.08860   0.86309   0.00000  Uiso   1.00
H134   H     0.44450   0.20200   0.87170   0.00000  Uiso   1.00
C135   C     0.40881   0.75330   0.83925   0.00000  Uiso   1.00
H136   H     0.40000   0.63920   0.83120   0.00000  Uiso   1.00
C137   C     0.37546   0.03900   0.84384   0.00000  Uiso   1.00
C138   C     0.47878   0.96760   0.86928   0.00000  Uiso   1.00
C139   C     0.63763   0.89510   0.90915   0.00000  Uiso   1.00
H140   H     0.66240   0.80160   0.91170   0.00000  Uiso   1.00
C141   C     0.56513   0.16850   0.90122   0.00000  Uiso   1.00
H142   H     0.53950   0.26010   0.89840   0.00000  Uiso   1.00
C143   C     0.62609   0.19360   0.91753   0.00000  Uiso   1.00
C144   C     0.66273   0.05410   0.92162   0.00000  Uiso   1.00
H145   H     0.70370   0.06700   0.93260   0.00000  Uiso   1.00
P146   P     0.65713   0.40365   0.93144   0.00000  Uiso   1.00
O147   O     0.61047   0.53140   0.90054   0.00000  Uiso   1.00
O148   O     0.70696   0.40340   0.87882   0.00000  Uiso   1.00
O149   O     0.68507   0.41970   0.03360   0.00000  Uiso   1.00
H150   H     0.66600   0.50600   0.06290   0.00000  Uiso   1.00
Cu151  Cu    0.03631   0.14842   0.87796   0.00000  Uiso   1.00
P152   P    -0.18167   0.69960   0.83798   0.00000  Uiso   1.00
O153   O    -0.15238   0.86340   0.86310   0.00000  Uiso   1.00
O154   O    -0.22198   0.64600   0.90359   0.00000  Uiso   1.00
H155   H    -0.24440   0.54660   0.88330   0.00000  Uiso   1.00
O156   O    -0.21972   0.68880   0.74099   0.00000  Uiso   1.00
H157   H    -0.21100   0.77990   0.70330   0.00000  Uiso   1.00
N158   N    -0.03407   0.30140   0.85781   0.00000  Uiso   1.00
N159   N     0.07872   0.37160   0.89351   0.00000  Uiso   1.00
C160   C     0.04281   0.50710   0.88917   0.00000  Uiso   1.00
C161   C    -0.13711   0.36770   0.83170   0.00000  Uiso   1.00
H162   H    -0.17620   0.33080   0.81860   0.00000  Uiso   1.00
C163   C    -0.06534   0.58860   0.86309   0.00000  Uiso   1.00
H164   H    -0.05550   0.70200   0.87170   0.00000  Uiso   1.00
C165   C    -0.09119   0.25330   0.83925   0.00000  Uiso   1.00
H166   H    -0.10000   0.13920   0.83120   0.00000  Uiso   1.00
C167   C    -0.12454   0.53900   0.84384   0.00000  Uiso   1.00
C168   C    -0.02122   0.46760   0.86928   0.00000  Uiso   1.00
C169   C     0.13763   0.39510   0.90915   0.00000  Uiso   1.00
H170   H     0.16240   0.30160   0.91170   0.00000  Uiso   1.00
C171   C     0.06513   0.66850   0.90122   0.00000  Uiso   1.00
H172   H     0.03950   0.76010   0.89840   0.00000  Uiso   1.00
C173   C     0.12609   0.69360   0.91753   0.00000  Uiso   1.00
C174   C     0.16273   0.55410   0.92162   0.00000  Uiso   1.00
H175   H     0.20370   0.56700   0.93260   0.00000  Uiso   1.00
P176   P     0.15713   0.90365   0.93144   0.00000  Uiso   1.00
O177   O     0.11047   0.03140   0.90054   0.00000  Uiso   1.00
O178   O     0.20696   0.90340   0.87882   0.00000  Uiso   1.00
O179   O     0.18507   0.91970   0.03360   0.00000  Uiso   1.00
H180   H     0.16600   0.00600   0.06290   0.00000  Uiso   1.00
Cu181  Cu    0.46369   0.64842   0.62204   0.00000  Uiso   1.00
P182   P     0.68167   0.19960   0.66202   0.00000  Uiso   1.00
O183   O     0.65238   0.36340   0.63690   0.00000  Uiso   1.00
O184   O     0.72198   0.14600   0.59641   0.00000  Uiso   1.00
H185   H     0.74440   0.04660   0.61670   0.00000  Uiso   1.00
O186   O     0.71972   0.18880   0.75901   0.00000  Uiso   1.00
H187   H     0.71100   0.27990   0.79670   0.00000  Uiso   1.00
N188   N     0.53407   0.80140   0.64219   0.00000  Uiso   1.00
N189   N     0.42128   0.87160   0.60649   0.00000  Uiso   1.00
C190   C     0.45719   0.00710   0.61083   0.00000  Uiso   1.00
C191   C     0.63711   0.86770   0.66830   0.00000  Uiso   1.00
H192   H     0.67620   0.83080   0.68140   0.00000  Uiso   1.00
C193   C     0.56534   0.08860   0.63691   0.00000  Uiso   1.00
H194   H     0.55550   0.20200   0.62830   0.00000  Uiso   1.00
C195   C     0.59119   0.75330   0.66075   0.00000  Uiso   1.00
H196   H     0.60000   0.63920   0.66880   0.00000  Uiso   1.00
C197   C     0.62454   0.03900   0.65616   0.00000  Uiso   1.00
C198   C     0.52122   0.96760   0.63072   0.00000  Uiso   1.00
C199   C     0.36237   0.89510   0.59085   0.00000  Uiso   1.00
H200   H     0.33760   0.80160   0.58830   0.00000  Uiso   1.00
C201   C     0.43487   0.16850   0.59878   0.00000  Uiso   1.00
H202   H     0.46050   0.26010   0.60160   0.00000  Uiso   1.00
C203   C     0.37391   0.19360   0.58247   0.00000  Uiso   1.00
C204   C     0.33727   0.05410   0.57838   0.00000  Uiso   1.00
H205   H     0.29630   0.06700   0.56740   0.00000  Uiso   1.00
P206   P     0.34287   0.40365   0.56856   0.00000  Uiso   1.00
O207   O     0.38953   0.53140   0.59946   0.00000  Uiso   1.00
O208   O     0.29304   0.40340   0.62118   0.00000  Uiso   1.00
O209   O     0.31493   0.41970   0.46640   0.00000  Uiso   1.00
H210   H     0.33400   0.50600   0.43710   0.00000  Uiso   1.00
Cu211  Cu   -0.03631   0.14842   0.62204   0.00000  Uiso   1.00
P212   P     0.18167   0.69960   0.66202   0.00000  Uiso   1.00
O213   O     0.15238   0.86340   0.63690   0.00000  Uiso   1.00
O214   O     0.22198   0.64600   0.59641   0.00000  Uiso   1.00
H215   H     0.24440   0.54660   0.61670   0.00000  Uiso   1.00
O216   O     0.21972   0.68880   0.75901   0.00000  Uiso   1.00
H217   H     0.21100   0.77990   0.79670   0.00000  Uiso   1.00
N218   N     0.03407   0.30140   0.64219   0.00000  Uiso   1.00
N219   N    -0.07872   0.37160   0.60649   0.00000  Uiso   1.00
C220   C    -0.04281   0.50710   0.61083   0.00000  Uiso   1.00
C221   C     0.13711   0.36770   0.66830   0.00000  Uiso   1.00
H222   H     0.17620   0.33080   0.68140   0.00000  Uiso   1.00
C223   C     0.06534   0.58860   0.63691   0.00000  Uiso   1.00
H224   H     0.05550   0.70200   0.62830   0.00000  Uiso   1.00
C225   C     0.09119   0.25330   0.66075   0.00000  Uiso   1.00
H226   H     0.10000   0.13920   0.66880   0.00000  Uiso   1.00
C227   C     0.12454   0.53900   0.65616   0.00000  Uiso   1.00
C228   C     0.02122   0.46760   0.63072   0.00000  Uiso   1.00
C229   C    -0.13763   0.39510   0.59085   0.00000  Uiso   1.00
H230   H    -0.16240   0.30160   0.58830   0.00000  Uiso   1.00
C231   C    -0.06513   0.66850   0.59878   0.00000  Uiso   1.00
H232   H    -0.03950   0.76010   0.60160   0.00000  Uiso   1.00
C233   C    -0.12609   0.69360   0.58247   0.00000  Uiso   1.00
C234   C    -0.16273   0.55410   0.57838   0.00000  Uiso   1.00
H235   H    -0.20370   0.56700   0.56740   0.00000  Uiso   1.00
P236   P    -0.15713   0.90365   0.56856   0.00000  Uiso   1.00
O237   O    -0.11047   0.03140   0.59946   0.00000  Uiso   1.00
O238   O    -0.20696   0.90340   0.62118   0.00000  Uiso   1.00
O239   O    -0.18507   0.91970   0.46640   0.00000  Uiso   1.00
H240   H    -0.16600   0.00600   0.43710   0.00000  Uiso   1.00
Cl241  Cl    0.50000   0.52351   0.25000   0.00000  Uiso   1.00
Cl242  Cl    0.00000   0.02351   0.25000   0.00000  Uiso   1.00
Cl243  Cl    0.50000   0.47649   0.75000   0.00000  Uiso   1.00
Cl244  Cl   -0.00000   0.97649   0.75000   0.00000  Uiso   1.00
Cl245  Cl    0.50000   0.50000  -0.00000   0.00000  Uiso   1.00
Cl246  Cl    0.00000   0.00000   0.00000   0.00000  Uiso   1.00
Cl247  Cl    0.50000   0.50000   0.50000   0.00000  Uiso   1.00
Cl248  Cl    0.00000   0.00000   0.50000   0.00000  Uiso   1.00
loop_
_geom_bond_atom_site_label_1
_geom_bond_atom_site_label_2
_geom_bond_distance
_geom_bond_site_symmetry_2
_ccdc_geom_bond_type
Cu1    Cl241   2.377   .     S
Cu1    Cl245   2.444   .     S
Cu1    N8      1.998   .     S
Cu1    N9      2.012   .     S
Cu1    O27     1.913   .     S
P2     O3      1.479   .     S
P2     O4      1.526   .     S
P2     O6      1.557   .     S
P2     C17     1.818   .     S
O4     H5      0.960   .     S
O6     H7      0.960   .     S
N8     C15     1.345   .     S
N8     C18     1.354   .     S
N9     C10     1.348   1_545 S
N9     C19     1.342   .     S
C10    N9      1.348   1_565 S
C10    C21     1.378   .     S
C10    C18     1.479   1_565 S
C11    H12     0.930   .     S
C11    C15     1.379   .     S
C11    C17     1.393   1_545 S
C13    H14     0.930   .     S
C13    C17     1.393   .     S
C13    C18     1.385   1_565 S
C15    H16     0.930   .     S
C17    C11     1.393   1_565 S
C18    C10     1.479   1_545 S
C18    C13     1.385   1_545 S
C19    H20     0.930   .     S
C19    C24     1.384   1_545 S
C21    H22     0.930   .     S
C21    C23     1.390   .     S
C23    P26     1.808   .     S
C23    C24     1.384   .     S
C24    C19     1.384   1_565 S
C24    H25     0.930   .     S
P26    O27     1.485   .     S
P26    O28     1.501   .     S
P26    O29     1.555   1_554 S
O29    P26     1.555   1_556 S
O29    H30     0.960   .     S
Cu31   Cl242   2.377   1_565 S
Cu31   Cl246   2.444   1_565 S
Cu31   N38     1.998   .     S
Cu31   N39     2.012   .     S
Cu31   O57     1.913   .     S
P32    O33     1.479   .     S
P32    O34     1.526   .     S
P32    O36     1.557   .     S
P32    C47     1.818   .     S
O34    H35     0.960   .     S
O36    H37     0.960   .     S
N38    C45     1.345   .     S
N38    C48     1.354   .     S
N39    C40     1.348   .     S
N39    C49     1.342   .     S
C40    C51     1.378   .     S
C40    C48     1.479   .     S
C41    H42     0.930   .     S
C41    C45     1.379   .     S
C41    C47     1.393   .     S
C43    H44     0.930   .     S
C43    C47     1.393   .     S
C43    C48     1.385   .     S
C45    H46     0.930   .     S
C49    H50     0.930   .     S
C49    C54     1.384   .     S
C51    H52     0.930   .     S
C51    C53     1.390   .     S
C53    P56     1.808   .     S
C53    C54     1.384   .     S
C54    H55     0.930   .     S
P56    O57     1.485   1_545 S
P56    O58     1.501   .     S
P56    O59     1.555   1_554 S
O57    P56     1.485   1_565 S
O59    P56     1.555   1_556 S
O59    H60     0.960   1_545 S
H60    O59     0.960   1_565 S
Cu61   Cl241   2.377   .     S
Cu61   Cl247   2.444   .     S
Cu61   N68     1.998   .     S
Cu61   N69     2.012   .     S
Cu61   O87     1.913   .     S
P62    O63     1.479   .     S
P62    O64     1.526   .     S
P62    O66     1.557   .     S
P62    C77     1.818   .     S
O64    H65     0.960   .     S
O66    H67     0.960   .     S
N68    C75     1.345   .     S
N68    C78     1.354   .     S
N69    C70     1.348   1_545 S
N69    C79     1.342   .     S
C70    N69     1.348   1_565 S
C70    C81     1.378   .     S
C70    C78     1.479   1_565 S
C71    H72     0.930   .     S
C71    C75     1.379   .     S
C71    C77     1.393   1_545 S
C73    H74     0.930   .     S
C73    C77     1.393   .     S
C73    C78     1.385   1_565 S
C75    H76     0.930   .     S
C77    C71     1.393   1_565 S
C78    C70     1.479   1_545 S
C78    C73     1.385   1_545 S
C79    H80     0.930   .     S
C79    C84     1.384   1_545 S
C81    H82     0.930   .     S
C81    C83     1.390   .     S
C83    P86     1.808   .     S
C83    C84     1.384   .     S
C84    C79     1.384   1_565 S
C84    H85     0.930   .     S
P86    O87     1.485   .     S
P86    O88     1.501   .     S
P86    O89     1.555   .     S
O89    H90     0.960   .     S
Cu91   Cl242   2.377   1_565 S
Cu91   Cl248   2.444   1_565 S
Cu91   N98     1.998   .     S
Cu91   N99     2.012   .     S
Cu91   O117    1.913   .     S
P92    O93     1.479   .     S
P92    O94     1.526   .     S
P92    O96     1.557   .     S
P92    C107    1.818   .     S
O94    H95     0.960   .     S
O96    H97     0.960   .     S
N98    C105    1.345   .     S
N98    C108    1.354   .     S
N99    C100    1.348   .     S
N99    C109    1.342   .     S
C100   C111    1.378   .     S
C100   C108    1.479   .     S
C101   H102    0.930   .     S
C101   C105    1.379   .     S
C101   C107    1.393   .     S
C103   H104    0.930   .     S
C103   C107    1.393   .     S
C103   C108    1.385   .     S
C105   H106    0.930   .     S
C109   H110    0.930   .     S
C109   C114    1.384   .     S
C111   H112    0.930   .     S
C111   C113    1.390   .     S
C113   P116    1.808   .     S
C113   C114    1.384   .     S
C114   H115    0.930   .     S
P116   O117    1.485   1_545 S
P116   O118    1.501   .     S
P116   O119    1.555   .     S
O117   P116    1.485   1_565 S
O119   H120    0.960   1_545 S
H120   O119    0.960   1_565 S
Cu121  Cl243   2.377   .     S
Cu121  Cl245   2.444   1_556 S
Cu121  N128    1.998   .     S
Cu121  N129    2.012   .     S
Cu121  O147    1.913   .     S
P122   O123    1.479   .     S
P122   O124    1.526   .     S
P122   O126    1.557   .     S
P122   C137    1.818   .     S
O124   H125    0.960   .     S
O126   H127    0.960   .     S
N128   C135    1.345   .     S
N128   C138    1.354   .     S
N129   C130    1.348   1_565 S
N129   C139    1.342   .     S
C130   N129    1.348   1_545 S
C130   C141    1.378   .     S
C130   C138    1.479   1_545 S
C131   H132    0.930   .     S
C131   C135    1.379   .     S
C131   C137    1.393   1_565 S
C133   H134    0.930   .     S
C133   C137    1.393   .     S
C133   C138    1.385   1_545 S
C135   H136    0.930   .     S
C137   C131    1.393   1_545 S
C138   C130    1.479   1_565 S
C138   C133    1.385   1_565 S
C139   H140    0.930   .     S
C139   C144    1.384   1_565 S
C141   H142    0.930   .     S
C141   C143    1.390   .     S
C143   P146    1.808   .     S
C143   C144    1.384   .     S
C144   C139    1.384   1_545 S
C144   H145    0.930   .     S
P146   O147    1.485   .     S
P146   O148    1.501   .     S
P146   O149    1.555   1_556 S
O149   P146    1.555   1_554 S
O149   H150    0.960   .     S
Cu151  Cl244   2.377   1_545 S
Cu151  Cl246   2.444   1_556 S
Cu151  N158    1.998   .     S
Cu151  N159    2.012   .     S
Cu151  O177    1.913   .     S
P152   O153    1.479   .     S
P152   O154    1.526   .     S
P152   O156    1.557   .     S
P152   C167    1.818   .     S
O154   H155    0.960   .     S
O156   H157    0.960   .     S
N158   C165    1.345   .     S
N158   C168    1.354   .     S
N159   C160    1.348   .     S
N159   C169    1.342   .     S
C160   C171    1.378   .     S
C160   C168    1.479   .     S
C161   H162    0.930   .     S
C161   C165    1.379   .     S
C161   C167    1.393   .     S
C163   H164    0.930   .     S
C163   C167    1.393   .     S
C163   C168    1.385   .     S
C165   H166    0.930   .     S
C169   H170    0.930   .     S
C169   C174    1.384   .     S
C171   H172    0.930   .     S
C171   C173    1.390   .     S
C173   P176    1.808   .     S
C173   C174    1.384   .     S
C174   H175    0.930   .     S
P176   O177    1.485   1_565 S
P176   O178    1.501   .     S
P176   O179    1.555   1_556 S
O177   P176    1.485   1_545 S
O179   P176    1.555   1_554 S
O179   H180    0.960   1_565 S
H180   O179    0.960   1_545 S
Cu181  Cl243   2.377   .     S
Cu181  Cl247   2.444   .     S
Cu181  N188    1.998   .     S
Cu181  N189    2.012   .     S
Cu181  O207    1.913   .     S
P182   O183    1.479   .     S
P182   O184    1.526   .     S
P182   O186    1.557   .     S
P182   C197    1.818   .     S
O184   H185    0.960   .     S
O186   H187    0.960   .     S
N188   C195    1.345   .     S
N188   C198    1.354   .     S
N189   C190    1.348   1_565 S
N189   C199    1.342   .     S
C190   N189    1.348   1_545 S
C190   C201    1.378   .     S
C190   C198    1.479   1_545 S
C191   H192    0.930   .     S
C191   C195    1.379   .     S
C191   C197    1.393   1_565 S
C193   H194    0.930   .     S
C193   C197    1.393   .     S
C193   C198    1.385   1_545 S
C195   H196    0.930   .     S
C197   C191    1.393   1_545 S
C198   C190    1.479   1_565 S
C198   C193    1.385   1_565 S
C199   H200    0.930   .     S
C199   C204    1.384   1_565 S
C201   H202    0.930   .     S
C201   C203    1.390   .     S
C203   P206    1.808   .     S
C203   C204    1.384   .     S
C204   C199    1.384   1_545 S
C204   H205    0.930   .     S
P206   O207    1.485   .     S
P206   O208    1.501   .     S
P206   O209    1.555   .     S
O209   H210    0.960   .     S
Cu211  Cl244   2.377   1_545 S
Cu211  Cl248   2.444   .     S
Cu211  N218    1.998   .     S
Cu211  N219    2.012   .     S
Cu211  O237    1.913   .     S
P212   O213    1.479   .     S
P212   O214    1.526   .     S
P212   O216    1.557   .     S
P212   C227    1.818   .     S
O214   H215    0.960   .     S
O216   H217    0.960   .     S
N218   C225    1.345   .     S
N218   C228    1.354   .     S
N219   C220    1.348   .     S
N219   C229    1.342   .     S
C220   C231    1.378   .     S
C220   C228    1.479   .     S
C221   H222    0.930   .     S
C221   C225    1.379   .     S
C221   C227    1.393   .     S
C223   H224    0.930   .     S
C223   C227    1.393   .     S
C223   C228    1.385   .     S
C225   H226    0.930   .     S
C229   H230    0.930   .     S
C229   C234    1.384   .     S
C231   H232    0.930   .     S
C231   C233    1.390   .     S
C233   P236    1.808   .     S
C233   C234    1.384   .     S
C234   H235    0.930   .     S
P236   O237    1.485   1_565 S
P236   O238    1.501   .     S
P236   O239    1.555   .     S
O237   P236    1.485   1_545 S
O239   H240    0.960   1_565 S
H240   O239    0.960   1_545 S
Cl242  Cu31    2.377   1_545 S
Cl242  Cu91    2.377   1_545 S
Cl244  Cu151   2.377   1_565 S
Cl244  Cu211   2.377   1_565 S
Cl245  Cu121   2.444   1_554 S
Cl246  Cu31    2.444   1_545 S
Cl246  Cu151   2.444   1_554 S
Cl248  Cu91    2.444   1_545 S
