data_UXIQOJ_FSR
_audit_creation_date              2024-06-11
_audit_creation_method            'Materials Studio'
_symmetry_space_group_name_H-M    'P1'
_symmetry_Int_Tables_number       1
_symmetry_cell_setting            triclinic
loop_
_symmetry_equiv_pos_as_xyz
  x,y,z
_cell_length_a                    15.1780
_cell_length_b                    15.1780
_cell_length_c                    12.0813
_cell_angle_alpha                 90.0000
_cell_angle_beta                  90.0000
_cell_angle_gamma                 90.0000
loop_
_atom_site_label
_atom_site_type_symbol
_atom_site_fract_x
_atom_site_fract_y
_atom_site_fract_z
_atom_site_U_iso_or_equiv
_atom_site_adp_type
_atom_site_occupancy
O1     O     0.38270   0.37670   0.88820   0.00000  Uiso   1.00
O2     O     0.28690   0.40450   0.74920   0.00000  Uiso   1.00
C3     C     0.35990   0.41000   0.79680   0.00000  Uiso   1.00
C4     C     0.43150   0.46020   0.73600   0.00000  Uiso   1.00
C5     C     0.43040   0.46290   0.62310   0.00000  Uiso   1.00
H6     H     0.38220   0.43950   0.58570   0.00000  Uiso   1.00
O7     O     0.88270   0.87670   0.38820   0.00000  Uiso   1.00
O8     O     0.78690   0.90450   0.24920   0.00000  Uiso   1.00
C9     C     0.85990   0.91000   0.29680   0.00000  Uiso   1.00
C10    C     0.93150   0.96020   0.23600   0.00000  Uiso   1.00
C11    C     0.93040   0.96290   0.12310   0.00000  Uiso   1.00
H12    H     0.88220   0.93950   0.08570   0.00000  Uiso   1.00
O13    O     0.11730   0.12330   0.38820   0.00000  Uiso   1.00
O14    O     0.21310   0.09550   0.24920   0.00000  Uiso   1.00
C15    C     0.14010   0.09000   0.29680   0.00000  Uiso   1.00
C16    C     0.06850   0.03980   0.23600   0.00000  Uiso   1.00
C17    C     0.06960   0.03710   0.12310   0.00000  Uiso   1.00
H18    H     0.11780   0.06050   0.08570   0.00000  Uiso   1.00
O19    O     0.61730   0.62330   0.88820   0.00000  Uiso   1.00
O20    O     0.71310   0.59550   0.74920   0.00000  Uiso   1.00
C21    C     0.64010   0.59000   0.79680   0.00000  Uiso   1.00
C22    C     0.56850   0.53980   0.73600   0.00000  Uiso   1.00
C23    C     0.56960   0.53710   0.62310   0.00000  Uiso   1.00
H24    H     0.61780   0.56050   0.58570   0.00000  Uiso   1.00
O25    O     0.62330   0.88270   0.13820   0.00000  Uiso   1.00
O26    O     0.59550   0.78690   0.99920   0.00000  Uiso   1.00
C27    C     0.59000   0.85990   0.04680   0.00000  Uiso   1.00
C28    C     0.53980   0.93150   0.98600   0.00000  Uiso   1.00
C29    C     0.53710   0.93040   0.87310   0.00000  Uiso   1.00
H30    H     0.56050   0.88220   0.83570   0.00000  Uiso   1.00
O31    O     0.12330   0.38270   0.63820   0.00000  Uiso   1.00
O32    O     0.09550   0.28690   0.49920   0.00000  Uiso   1.00
C33    C     0.09000   0.35990   0.54680   0.00000  Uiso   1.00
C34    C     0.03980   0.43150   0.48600   0.00000  Uiso   1.00
C35    C     0.03710   0.43040   0.37310   0.00000  Uiso   1.00
H36    H     0.06050   0.38220   0.33570   0.00000  Uiso   1.00
O37    O     0.87670   0.61730   0.63820   0.00000  Uiso   1.00
O38    O     0.90450   0.71310   0.49920   0.00000  Uiso   1.00
C39    C     0.91000   0.64010   0.54680   0.00000  Uiso   1.00
C40    C     0.96020   0.56850   0.48600   0.00000  Uiso   1.00
C41    C     0.96290   0.56960   0.37310   0.00000  Uiso   1.00
H42    H     0.93950   0.61780   0.33570   0.00000  Uiso   1.00
O43    O     0.37670   0.11730   0.13820   0.00000  Uiso   1.00
O44    O     0.40450   0.21310   0.99920   0.00000  Uiso   1.00
C45    C     0.41000   0.14010   0.04680   0.00000  Uiso   1.00
C46    C     0.46020   0.06850   0.98600   0.00000  Uiso   1.00
C47    C     0.46290   0.06960   0.87310   0.00000  Uiso   1.00
H48    H     0.43950   0.11780   0.83570   0.00000  Uiso   1.00
O49    O     0.11730   0.37670   0.86180   0.00000  Uiso   1.00
O50    O     0.21310   0.40450   0.00080   0.00000  Uiso   1.00
C51    C     0.14010   0.41000   0.95320   0.00000  Uiso   1.00
C52    C     0.06850   0.46020   0.01400   0.00000  Uiso   1.00
C53    C     0.06960   0.46290   0.12690   0.00000  Uiso   1.00
H54    H     0.11780   0.43950   0.16430   0.00000  Uiso   1.00
O55    O     0.61730   0.87670   0.36180   0.00000  Uiso   1.00
O56    O     0.71310   0.90450   0.50080   0.00000  Uiso   1.00
C57    C     0.64010   0.91000   0.45320   0.00000  Uiso   1.00
C58    C     0.56850   0.96020   0.51400   0.00000  Uiso   1.00
C59    C     0.56960   0.96290   0.62690   0.00000  Uiso   1.00
H60    H     0.61780   0.93950   0.66430   0.00000  Uiso   1.00
O61    O     0.38270   0.12330   0.36180   0.00000  Uiso   1.00
O62    O     0.28690   0.09550   0.50080   0.00000  Uiso   1.00
C63    C     0.35990   0.09000   0.45320   0.00000  Uiso   1.00
C64    C     0.43150   0.03980   0.51400   0.00000  Uiso   1.00
C65    C     0.43040   0.03710   0.62690   0.00000  Uiso   1.00
H66    H     0.38220   0.06050   0.66430   0.00000  Uiso   1.00
O67    O     0.88270   0.62330   0.86180   0.00000  Uiso   1.00
O68    O     0.78690   0.59550   0.00080   0.00000  Uiso   1.00
C69    C     0.85990   0.59000   0.95320   0.00000  Uiso   1.00
C70    C     0.93150   0.53980   0.01400   0.00000  Uiso   1.00
C71    C     0.93040   0.53710   0.12690   0.00000  Uiso   1.00
H72    H     0.88220   0.56050   0.16430   0.00000  Uiso   1.00
O73    O     0.87670   0.88270   0.61180   0.00000  Uiso   1.00
O74    O     0.90450   0.78690   0.75080   0.00000  Uiso   1.00
C75    C     0.91000   0.85990   0.70320   0.00000  Uiso   1.00
C76    C     0.96020   0.93150   0.76400   0.00000  Uiso   1.00
C77    C     0.96290   0.93040   0.87690   0.00000  Uiso   1.00
H78    H     0.93950   0.88220   0.91430   0.00000  Uiso   1.00
O79    O     0.37670   0.38270   0.11180   0.00000  Uiso   1.00
O80    O     0.40450   0.28690   0.25080   0.00000  Uiso   1.00
C81    C     0.41000   0.35990   0.20320   0.00000  Uiso   1.00
C82    C     0.46020   0.43150   0.26400   0.00000  Uiso   1.00
C83    C     0.46290   0.43040   0.37690   0.00000  Uiso   1.00
H84    H     0.43950   0.38220   0.41430   0.00000  Uiso   1.00
O85    O     0.62330   0.61730   0.11180   0.00000  Uiso   1.00
O86    O     0.59550   0.71310   0.25080   0.00000  Uiso   1.00
C87    C     0.59000   0.64010   0.20320   0.00000  Uiso   1.00
C88    C     0.53980   0.56850   0.26400   0.00000  Uiso   1.00
C89    C     0.53710   0.56960   0.37690   0.00000  Uiso   1.00
H90    H     0.56050   0.61780   0.41430   0.00000  Uiso   1.00
O91    O     0.12330   0.11730   0.61180   0.00000  Uiso   1.00
O92    O     0.09550   0.21310   0.75080   0.00000  Uiso   1.00
C93    C     0.09000   0.14010   0.70320   0.00000  Uiso   1.00
C94    C     0.03980   0.06850   0.76400   0.00000  Uiso   1.00
C95    C     0.03710   0.06960   0.87690   0.00000  Uiso   1.00
H96    H     0.06050   0.11780   0.91430   0.00000  Uiso   1.00
Ni97   Ni    0.18964   0.31036   0.75000   0.00000  Uiso   1.00
Ni98   Ni    0.31036   0.18964   0.25000   0.00000  Uiso   1.00
Ni99   Ni    0.68964   0.68964   0.00000   0.00000  Uiso   1.00
Ni100  Ni    0.81036   0.81036   0.50000   0.00000  Uiso   1.00
Ni101  Ni    0.31036   0.31036   0.00000   0.00000  Uiso   1.00
Ni102  Ni    0.18964   0.18964   0.50000   0.00000  Uiso   1.00
Ni103  Ni    0.81036   0.68964   0.75000   0.00000  Uiso   1.00
Ni104  Ni    0.68964   0.81036   0.25000   0.00000  Uiso   1.00
O105   O     0.25000   0.23640   0.87500   0.00000  Uiso   1.00
O106   O     0.75000   0.73640   0.37500   0.00000  Uiso   1.00
O107   O     0.25000   0.26360   0.37500   0.00000  Uiso   1.00
O108   O     0.75000   0.76360   0.87500   0.00000  Uiso   1.00
O109   O     0.76360   0.75000   0.12500   0.00000  Uiso   1.00
O110   O     0.26360   0.25000   0.62500   0.00000  Uiso   1.00
O111   O     0.73640   0.75000   0.62500   0.00000  Uiso   1.00
O112   O     0.23640   0.25000   0.12500   0.00000  Uiso   1.00
C113   C     0.50000   0.50000   0.79450   0.00000  Uiso   1.00
H114   H     0.50000   0.50000   0.87150   0.00000  Uiso   1.00
C115   C     0.50000   0.50000   0.56140   0.00000  Uiso   1.00
C116   C     0.00000   0.00000   0.29450   0.00000  Uiso   1.00
H117   H     0.00000   0.00000   0.37150   0.00000  Uiso   1.00
C118   C     0.00000   0.00000   0.06140   0.00000  Uiso   1.00
C119   C     0.50000   0.00000   0.04450   0.00000  Uiso   1.00
H120   H     0.50000   0.00000   0.12150   0.00000  Uiso   1.00
C121   C     0.50000   0.00000   0.81140   0.00000  Uiso   1.00
C122   C     0.00000   0.50000   0.54450   0.00000  Uiso   1.00
H123   H     0.00000   0.50000   0.62150   0.00000  Uiso   1.00
C124   C     0.00000   0.50000   0.31140   0.00000  Uiso   1.00
C125   C     0.00000   0.50000   0.95550   0.00000  Uiso   1.00
H126   H     0.00000   0.50000   0.87850   0.00000  Uiso   1.00
C127   C     0.00000   0.50000   0.18860   0.00000  Uiso   1.00
C128   C     0.50000   0.00000   0.45550   0.00000  Uiso   1.00
H129   H     0.50000   0.00000   0.37850   0.00000  Uiso   1.00
C130   C     0.50000   0.00000   0.68860   0.00000  Uiso   1.00
C131   C     0.00000   0.00000   0.70550   0.00000  Uiso   1.00
H132   H     0.00000   0.00000   0.62850   0.00000  Uiso   1.00
C133   C     0.00000   0.00000   0.93860   0.00000  Uiso   1.00
C134   C     0.50000   0.50000   0.20550   0.00000  Uiso   1.00
H135   H     0.50000   0.50000   0.12850   0.00000  Uiso   1.00
C136   C     0.50000   0.50000   0.43860   0.00000  Uiso   1.00
loop_
_geom_bond_atom_site_label_1
_geom_bond_atom_site_label_2
_geom_bond_distance
_geom_bond_site_symmetry_2
_ccdc_geom_bond_type
O1     C3      1.263   .     S
O1     Ni101   2.011   1_556 S
O2     Ni97    2.054   .     S
O2     C3      1.251   .     S
C3     C4      1.517   .     S
C4     C5      1.365   .     S
C4     C113    1.395   .     S
C5     H6      0.930   .     S
C5     C115    1.410   .     S
O7     C9      1.263   .     S
O7     Ni100   2.011   .     S
O8     Ni104   2.054   .     S
O8     C9      1.251   .     S
C9     C10     1.517   .     S
C10    C11     1.365   .     S
C10    C116    1.395   1_665 S
C11    H12     0.930   .     S
C11    C118    1.410   1_665 S
O13    C15     1.263   .     S
O13    Ni102   2.011   .     S
O14    Ni98    2.054   .     S
O14    C15     1.251   .     S
C15    C16     1.517   .     S
C16    C17     1.365   .     S
C16    C116    1.395   .     S
C17    H18     0.930   .     S
C17    C118    1.410   .     S
O19    C21     1.263   .     S
O19    Ni99    2.011   1_556 S
O20    Ni103   2.054   .     S
O20    C21     1.251   .     S
C21    C22     1.517   .     S
C22    C23     1.365   .     S
C22    C113    1.395   .     S
C23    H24     0.930   .     S
C23    C115    1.410   .     S
O25    C27     1.263   .     S
O25    Ni104   2.011   .     S
O26    Ni99    2.054   1_556 S
O26    C27     1.251   1_556 S
C27    O26     1.251   1_554 S
C27    C28     1.517   1_554 S
C28    C27     1.517   1_556 S
C28    C29     1.365   .     S
C28    C119    1.395   1_566 S
C29    H30     0.930   .     S
C29    C121    1.410   1_565 S
O31    C33     1.263   .     S
O31    Ni97    2.011   .     S
O32    Ni102   2.054   .     S
O32    C33     1.251   .     S
C33    C34     1.517   .     S
C34    C35     1.365   .     S
C34    C122    1.395   .     S
C35    H36     0.930   .     S
C35    C124    1.410   .     S
O37    C39     1.263   .     S
O37    Ni103   2.011   .     S
O38    Ni100   2.054   .     S
O38    C39     1.251   .     S
C39    C40     1.517   .     S
C40    C41     1.365   .     S
C40    C122    1.395   1_655 S
C41    H42     0.930   .     S
C41    C124    1.410   1_655 S
O43    C45     1.263   .     S
O43    Ni98    2.011   .     S
O44    Ni101   2.054   1_556 S
O44    C45     1.251   1_556 S
C45    O44     1.251   1_554 S
C45    C46     1.517   1_554 S
C46    C45     1.517   1_556 S
C46    C47     1.365   .     S
C46    C119    1.395   1_556 S
C47    H48     0.930   .     S
C47    C121    1.410   .     S
O49    C51     1.263   .     S
O49    Ni97    2.011   .     S
O50    Ni101   2.054   .     S
O50    C51     1.251   1_554 S
C51    O50     1.251   1_556 S
C51    C52     1.517   1_556 S
C52    C51     1.517   1_554 S
C52    C53     1.365   .     S
C52    C125    1.395   1_554 S
C53    H54     0.930   .     S
C53    C127    1.410   .     S
O55    C57     1.263   .     S
O55    Ni104   2.011   .     S
O56    Ni100   2.054   .     S
O56    C57     1.251   .     S
C57    C58     1.517   .     S
C58    C59     1.365   .     S
C58    C128    1.395   1_565 S
C59    H60     0.930   .     S
C59    C130    1.410   1_565 S
O61    C63     1.263   .     S
O61    Ni98    2.011   .     S
O62    Ni102   2.054   .     S
O62    C63     1.251   .     S
C63    C64     1.517   .     S
C64    C65     1.365   .     S
C64    C128    1.395   .     S
C65    H66     0.930   .     S
C65    C130    1.410   .     S
O67    C69     1.263   .     S
O67    Ni103   2.011   .     S
O68    Ni99    2.054   .     S
O68    C69     1.251   1_554 S
C69    O68     1.251   1_556 S
C69    C70     1.517   1_556 S
C70    C69     1.517   1_554 S
C70    C71     1.365   .     S
C70    C125    1.395   1_654 S
C71    H72     0.930   .     S
C71    C127    1.410   1_655 S
O73    C75     1.263   .     S
O73    Ni100   2.011   .     S
O74    Ni103   2.054   .     S
O74    C75     1.251   .     S
C75    C76     1.517   .     S
C76    C77     1.365   .     S
C76    C131    1.395   1_665 S
C77    H78     0.930   .     S
C77    C133    1.410   1_665 S
O79    C81     1.263   .     S
O79    Ni101   2.011   .     S
O80    Ni98    2.054   .     S
O80    C81     1.251   .     S
C81    C82     1.517   .     S
C82    C83     1.365   .     S
C82    C134    1.395   .     S
C83    H84     0.930   .     S
C83    C136    1.410   .     S
O85    C87     1.263   .     S
O85    Ni99    2.011   .     S
O86    Ni104   2.054   .     S
O86    C87     1.251   .     S
C87    C88     1.517   .     S
C88    C89     1.365   .     S
C88    C134    1.395   .     S
C89    H90     0.930   .     S
C89    C136    1.410   .     S
O91    C93     1.263   .     S
O91    Ni102   2.011   .     S
O92    Ni97    2.054   .     S
O92    C93     1.251   .     S
C93    C94     1.517   .     S
C94    C95     1.365   .     S
C94    C131    1.395   .     S
C95    H96     0.930   .     S
C95    C133    1.410   .     S
Ni97   O105    2.093   .     S
Ni97   O110    2.093   .     S
Ni98   O107    2.093   .     S
Ni98   O112    2.093   .     S
Ni99   O109    2.093   .     S
Ni99   O108    2.093   1_554 S
Ni99   O26     2.054   1_554 S
Ni99   O19     2.011   1_554 S
Ni100  O111    2.093   .     S
Ni100  O106    2.093   .     S
Ni101  O105    2.093   1_554 S
Ni101  O112    2.093   .     S
Ni101  O44     2.054   1_554 S
Ni101  O1      2.011   1_554 S
Ni102  O107    2.093   .     S
Ni102  O110    2.093   .     S
Ni103  O111    2.093   .     S
Ni103  O108    2.093   .     S
Ni104  O109    2.093   .     S
Ni104  O106    2.093   .     S
O105   Ni101   2.093   1_556 S
O108   Ni99    2.093   1_556 S
C113   H114    0.930   .     S
C115   C136    1.484   .     S
C116   H117    0.930   .     S
C116   C10     1.395   1_445 S
C118   C11     1.410   1_445 S
C118   C133    1.484   1_554 S
C119   H120    0.930   .     S
C119   C46     1.395   1_554 S
C119   C28     1.395   1_544 S
C121   C29     1.410   1_545 S
C121   C130    1.484   .     S
C122   H123    0.930   .     S
C122   C40     1.395   1_455 S
C124   C41     1.410   1_455 S
C124   C127    1.484   .     S
C125   H126    0.930   .     S
C125   C70     1.395   1_456 S
C125   C52     1.395   1_556 S
C127   C71     1.410   1_455 S
C128   H129    0.930   .     S
C128   C58     1.395   1_545 S
C130   C59     1.410   1_545 S
C131   H132    0.930   .     S
C131   C76     1.395   1_445 S
C133   C77     1.410   1_445 S
C133   C118    1.484   1_556 S
C134   H135    0.930   .     S
