data_VIMRAM_FSR
_audit_creation_date              2024-06-11
_audit_creation_method            'Materials Studio'
_symmetry_space_group_name_H-M    'P1'
_symmetry_Int_Tables_number       1
_symmetry_cell_setting            triclinic
loop_
_symmetry_equiv_pos_as_xyz
  x,y,z
_cell_length_a                    24.1267
_cell_length_b                    24.1267
_cell_length_c                    11.3077
_cell_angle_alpha                 90.0000
_cell_angle_beta                  90.0000
_cell_angle_gamma                 90.0000
loop_
_atom_site_label
_atom_site_type_symbol
_atom_site_fract_x
_atom_site_fract_y
_atom_site_fract_z
_atom_site_U_iso_or_equiv
_atom_site_adp_type
_atom_site_occupancy
Cu1    Cu    0.46246   0.50850   0.10150   0.00000  Uiso   1.00
Cu2    Cu    0.59865   0.54413   0.14732   0.00000  Uiso   1.00
O3     O     0.55293   0.56115   0.28400   0.00000  Uiso   1.00
O4     O     0.46950   0.52079   0.26780   0.00000  Uiso   1.00
O5     O     0.48147   0.88395   0.87690   0.00000  Uiso   1.00
O6     O     0.53538   0.84798   0.01740   0.00000  Uiso   1.00
O7     O     0.33321   0.52630   0.57890   0.00000  Uiso   1.00
O8     O     0.36639   0.54173   0.77660   0.00000  Uiso   1.00
O9     O     0.33050   0.61720   0.66600   0.00000  Uiso   1.00
O10    O     0.46971   0.60707   0.04140   0.00000  Uiso   1.00
O11    O     0.56161   0.64842   0.06420   0.00000  Uiso   1.00
O12    O     0.54199   0.59180   0.89500   0.00000  Uiso   1.00
O13    O     0.54234   0.49747   0.07290   0.00000  Uiso   1.00
H14    H     0.54610   0.46720   0.10480   0.00000  Uiso   1.00
O15    O     0.44732   0.62987   0.77380   0.00000  Uiso   1.00
S16    S     0.35846   0.56456   0.66016   0.00000  Uiso   1.00
S17    S     0.51978   0.62974   0.98420   0.00000  Uiso   1.00
O18    O     0.65446   0.59256   0.22450   0.00000  Uiso   1.00
H19    H     0.69160   0.58050   0.21490   0.00000  Uiso   1.00
H20    H     0.65560   0.63050   0.19870   0.00000  Uiso   1.00
C21    C     0.49113   0.56937   0.44390   0.00000  Uiso   1.00
C22    C     0.44013   0.55782   0.49230   0.00000  Uiso   1.00
H23    H     0.41530   0.53560   0.45090   0.00000  Uiso   1.00
C24    C     0.42530   0.57869   0.60160   0.00000  Uiso   1.00
C25    C     0.46270   0.61095   0.66150   0.00000  Uiso   1.00
C26    C     0.51340   0.62120   0.61650   0.00000  Uiso   1.00
H27    H     0.53860   0.64220   0.65990   0.00000  Uiso   1.00
C28    C     0.52850   0.60100   0.50640   0.00000  Uiso   1.00
H29    H     0.56340   0.60870   0.47520   0.00000  Uiso   1.00
C30    C     0.46580   0.68249   0.80590   0.00000  Uiso   1.00
C31    C     0.49618   0.68848   0.90670   0.00000  Uiso   1.00
C32    C     0.50922   0.74128   0.94650   0.00000  Uiso   1.00
H33    H     0.52940   0.74560   0.01600   0.00000  Uiso   1.00
C34    C     0.49230   0.78792   0.88340   0.00000  Uiso   1.00
C35    C     0.46270   0.78017   0.78020   0.00000  Uiso   1.00
H36    H     0.45140   0.81080   0.73640   0.00000  Uiso   1.00
C37    C     0.44980   0.72790   0.74150   0.00000  Uiso   1.00
H38    H     0.43010   0.72330   0.67150   0.00000  Uiso   1.00
C39    C     0.50639   0.54816   0.32190   0.00000  Uiso   1.00
C40    C     0.50408   0.84490   0.93030   0.00000  Uiso   1.00
Cu41   Cu    0.03754   0.99150   0.10150   0.00000  Uiso   1.00
Cu42   Cu    0.90135   0.95587   0.14732   0.00000  Uiso   1.00
O43    O     0.94707   0.93885   0.28400   0.00000  Uiso   1.00
O44    O     0.03050   0.97921   0.26780   0.00000  Uiso   1.00
O45    O     0.01853   0.61605   0.87690   0.00000  Uiso   1.00
O46    O     0.96462   0.65202   0.01740   0.00000  Uiso   1.00
O47    O     0.16679   0.97370   0.57890   0.00000  Uiso   1.00
O48    O     0.13361   0.95827   0.77660   0.00000  Uiso   1.00
O49    O     0.16950   0.88280   0.66600   0.00000  Uiso   1.00
O50    O     0.03029   0.89293   0.04140   0.00000  Uiso   1.00
O51    O     0.93839   0.85158   0.06420   0.00000  Uiso   1.00
O52    O     0.95801   0.90820   0.89500   0.00000  Uiso   1.00
O53    O     0.95766   0.00253   0.07290   0.00000  Uiso   1.00
H54    H     0.95390   0.03280   0.10480   0.00000  Uiso   1.00
O55    O     0.05268   0.87013   0.77380   0.00000  Uiso   1.00
S56    S     0.14154   0.93544   0.66016   0.00000  Uiso   1.00
S57    S     0.98022   0.87026   0.98420   0.00000  Uiso   1.00
O58    O     0.84554   0.90744   0.22450   0.00000  Uiso   1.00
H59    H     0.80840   0.91950   0.21490   0.00000  Uiso   1.00
H60    H     0.84440   0.86950   0.19870   0.00000  Uiso   1.00
C61    C     0.00887   0.93063   0.44390   0.00000  Uiso   1.00
C62    C     0.05987   0.94218   0.49230   0.00000  Uiso   1.00
H63    H     0.08470   0.96440   0.45090   0.00000  Uiso   1.00
C64    C     0.07470   0.92131   0.60160   0.00000  Uiso   1.00
C65    C     0.03730   0.88905   0.66150   0.00000  Uiso   1.00
C66    C     0.98660   0.87880   0.61650   0.00000  Uiso   1.00
H67    H     0.96140   0.85780   0.65990   0.00000  Uiso   1.00
C68    C     0.97150   0.89900   0.50640   0.00000  Uiso   1.00
H69    H     0.93660   0.89130   0.47520   0.00000  Uiso   1.00
C70    C     0.03420   0.81751   0.80590   0.00000  Uiso   1.00
C71    C     0.00382   0.81152   0.90670   0.00000  Uiso   1.00
C72    C     0.99078   0.75872   0.94650   0.00000  Uiso   1.00
H73    H     0.97060   0.75440   0.01600   0.00000  Uiso   1.00
C74    C     0.00770   0.71208   0.88340   0.00000  Uiso   1.00
C75    C     0.03730   0.71983   0.78020   0.00000  Uiso   1.00
H76    H     0.04860   0.68920   0.73640   0.00000  Uiso   1.00
C77    C     0.05020   0.77210   0.74150   0.00000  Uiso   1.00
H78    H     0.06990   0.77670   0.67150   0.00000  Uiso   1.00
C79    C     0.99361   0.95184   0.32190   0.00000  Uiso   1.00
C80    C     0.99592   0.65510   0.93030   0.00000  Uiso   1.00
Cu81   Cu    0.99150   0.46246   0.10150   0.00000  Uiso   1.00
Cu82   Cu    0.95587   0.59865   0.14732   0.00000  Uiso   1.00
O83    O     0.93885   0.55293   0.28400   0.00000  Uiso   1.00
O84    O     0.97921   0.46950   0.26780   0.00000  Uiso   1.00
O85    O     0.61605   0.48147   0.87690   0.00000  Uiso   1.00
O86    O     0.65202   0.53538   0.01740   0.00000  Uiso   1.00
O87    O     0.97370   0.33321   0.57890   0.00000  Uiso   1.00
O88    O     0.95827   0.36639   0.77660   0.00000  Uiso   1.00
O89    O     0.88280   0.33050   0.66600   0.00000  Uiso   1.00
O90    O     0.89293   0.46971   0.04140   0.00000  Uiso   1.00
O91    O     0.85158   0.56161   0.06420   0.00000  Uiso   1.00
O92    O     0.90820   0.54199   0.89500   0.00000  Uiso   1.00
O93    O     0.00253   0.54234   0.07290   0.00000  Uiso   1.00
H94    H     0.03280   0.54610   0.10480   0.00000  Uiso   1.00
O95    O     0.87013   0.44732   0.77380   0.00000  Uiso   1.00
S96    S     0.93544   0.35846   0.66016   0.00000  Uiso   1.00
S97    S     0.87026   0.51978   0.98420   0.00000  Uiso   1.00
O98    O     0.90744   0.65446   0.22450   0.00000  Uiso   1.00
H99    H     0.91950   0.69160   0.21490   0.00000  Uiso   1.00
H100   H     0.86950   0.65560   0.19870   0.00000  Uiso   1.00
C101   C     0.93063   0.49113   0.44390   0.00000  Uiso   1.00
C102   C     0.94218   0.44013   0.49230   0.00000  Uiso   1.00
H103   H     0.96440   0.41530   0.45090   0.00000  Uiso   1.00
C104   C     0.92131   0.42530   0.60160   0.00000  Uiso   1.00
C105   C     0.88905   0.46270   0.66150   0.00000  Uiso   1.00
C106   C     0.87880   0.51340   0.61650   0.00000  Uiso   1.00
H107   H     0.85780   0.53860   0.65990   0.00000  Uiso   1.00
C108   C     0.89900   0.52850   0.50640   0.00000  Uiso   1.00
H109   H     0.89130   0.56340   0.47520   0.00000  Uiso   1.00
C110   C     0.81751   0.46580   0.80590   0.00000  Uiso   1.00
C111   C     0.81152   0.49618   0.90670   0.00000  Uiso   1.00
C112   C     0.75872   0.50922   0.94650   0.00000  Uiso   1.00
H113   H     0.75440   0.52940   0.01600   0.00000  Uiso   1.00
C114   C     0.71208   0.49230   0.88340   0.00000  Uiso   1.00
C115   C     0.71983   0.46270   0.78020   0.00000  Uiso   1.00
H116   H     0.68920   0.45140   0.73640   0.00000  Uiso   1.00
C117   C     0.77210   0.44980   0.74150   0.00000  Uiso   1.00
H118   H     0.77670   0.43010   0.67150   0.00000  Uiso   1.00
C119   C     0.95184   0.50639   0.32190   0.00000  Uiso   1.00
C120   C     0.65510   0.50408   0.93030   0.00000  Uiso   1.00
Cu121  Cu    0.50850   0.03754   0.10150   0.00000  Uiso   1.00
Cu122  Cu    0.54413   0.90135   0.14732   0.00000  Uiso   1.00
O123   O     0.56115   0.94707   0.28400   0.00000  Uiso   1.00
O124   O     0.52079   0.03050   0.26780   0.00000  Uiso   1.00
O125   O     0.88395   0.01853   0.87690   0.00000  Uiso   1.00
O126   O     0.84798   0.96462   0.01740   0.00000  Uiso   1.00
O127   O     0.52630   0.16679   0.57890   0.00000  Uiso   1.00
O128   O     0.54173   0.13361   0.77660   0.00000  Uiso   1.00
O129   O     0.61720   0.16950   0.66600   0.00000  Uiso   1.00
O130   O     0.60707   0.03029   0.04140   0.00000  Uiso   1.00
O131   O     0.64842   0.93839   0.06420   0.00000  Uiso   1.00
O132   O     0.59180   0.95801   0.89500   0.00000  Uiso   1.00
O133   O     0.49747   0.95766   0.07290   0.00000  Uiso   1.00
H134   H     0.46720   0.95390   0.10480   0.00000  Uiso   1.00
O135   O     0.62987   0.05268   0.77380   0.00000  Uiso   1.00
S136   S     0.56456   0.14154   0.66016   0.00000  Uiso   1.00
S137   S     0.62974   0.98022   0.98420   0.00000  Uiso   1.00
O138   O     0.59256   0.84554   0.22450   0.00000  Uiso   1.00
H139   H     0.58050   0.80840   0.21490   0.00000  Uiso   1.00
H140   H     0.63050   0.84440   0.19870   0.00000  Uiso   1.00
C141   C     0.56937   0.00887   0.44390   0.00000  Uiso   1.00
C142   C     0.55782   0.05987   0.49230   0.00000  Uiso   1.00
H143   H     0.53560   0.08470   0.45090   0.00000  Uiso   1.00
C144   C     0.57869   0.07470   0.60160   0.00000  Uiso   1.00
C145   C     0.61095   0.03730   0.66150   0.00000  Uiso   1.00
C146   C     0.62120   0.98660   0.61650   0.00000  Uiso   1.00
H147   H     0.64220   0.96140   0.65990   0.00000  Uiso   1.00
C148   C     0.60100   0.97150   0.50640   0.00000  Uiso   1.00
H149   H     0.60870   0.93660   0.47520   0.00000  Uiso   1.00
C150   C     0.68249   0.03420   0.80590   0.00000  Uiso   1.00
C151   C     0.68848   0.00382   0.90670   0.00000  Uiso   1.00
C152   C     0.74128   0.99078   0.94650   0.00000  Uiso   1.00
H153   H     0.74560   0.97060   0.01600   0.00000  Uiso   1.00
C154   C     0.78792   0.00770   0.88340   0.00000  Uiso   1.00
C155   C     0.78017   0.03730   0.78020   0.00000  Uiso   1.00
H156   H     0.81080   0.04860   0.73640   0.00000  Uiso   1.00
C157   C     0.72790   0.05020   0.74150   0.00000  Uiso   1.00
H158   H     0.72330   0.06990   0.67150   0.00000  Uiso   1.00
C159   C     0.54816   0.99361   0.32190   0.00000  Uiso   1.00
C160   C     0.84490   0.99592   0.93030   0.00000  Uiso   1.00
Cu161  Cu    0.53754   0.49150   0.89850   0.00000  Uiso   1.00
Cu162  Cu    0.40135   0.45587   0.85268   0.00000  Uiso   1.00
O163   O     0.44707   0.43885   0.71600   0.00000  Uiso   1.00
O164   O     0.53050   0.47921   0.73220   0.00000  Uiso   1.00
O165   O     0.51853   0.11605   0.12310   0.00000  Uiso   1.00
O166   O     0.46462   0.15202   0.98260   0.00000  Uiso   1.00
O167   O     0.66679   0.47370   0.42110   0.00000  Uiso   1.00
O168   O     0.63361   0.45827   0.22340   0.00000  Uiso   1.00
O169   O     0.66950   0.38280   0.33400   0.00000  Uiso   1.00
O170   O     0.53029   0.39293   0.95860   0.00000  Uiso   1.00
O171   O     0.43839   0.35158   0.93580   0.00000  Uiso   1.00
O172   O     0.45801   0.40820   0.10500   0.00000  Uiso   1.00
O173   O     0.45766   0.50253   0.92710   0.00000  Uiso   1.00
H174   H     0.45390   0.53280   0.89520   0.00000  Uiso   1.00
O175   O     0.55268   0.37013   0.22620   0.00000  Uiso   1.00
S176   S     0.64154   0.43544   0.33984   0.00000  Uiso   1.00
S177   S     0.48022   0.37026   0.01580   0.00000  Uiso   1.00
O178   O     0.34554   0.40744   0.77550   0.00000  Uiso   1.00
H179   H     0.30840   0.41950   0.78510   0.00000  Uiso   1.00
H180   H     0.34440   0.36950   0.80130   0.00000  Uiso   1.00
C181   C     0.50887   0.43063   0.55610   0.00000  Uiso   1.00
C182   C     0.55987   0.44218   0.50770   0.00000  Uiso   1.00
H183   H     0.58470   0.46440   0.54910   0.00000  Uiso   1.00
C184   C     0.57470   0.42131   0.39840   0.00000  Uiso   1.00
C185   C     0.53730   0.38905   0.33850   0.00000  Uiso   1.00
C186   C     0.48660   0.37880   0.38350   0.00000  Uiso   1.00
H187   H     0.46140   0.35780   0.34010   0.00000  Uiso   1.00
C188   C     0.47150   0.39900   0.49360   0.00000  Uiso   1.00
H189   H     0.43660   0.39130   0.52480   0.00000  Uiso   1.00
C190   C     0.53420   0.31751   0.19410   0.00000  Uiso   1.00
C191   C     0.50382   0.31152   0.09330   0.00000  Uiso   1.00
C192   C     0.49078   0.25872   0.05350   0.00000  Uiso   1.00
H193   H     0.47060   0.25440   0.98400   0.00000  Uiso   1.00
C194   C     0.50770   0.21208   0.11660   0.00000  Uiso   1.00
C195   C     0.53730   0.21983   0.21980   0.00000  Uiso   1.00
H196   H     0.54860   0.18920   0.26360   0.00000  Uiso   1.00
C197   C     0.55020   0.27210   0.25850   0.00000  Uiso   1.00
H198   H     0.56990   0.27670   0.32850   0.00000  Uiso   1.00
C199   C     0.49361   0.45184   0.67810   0.00000  Uiso   1.00
C200   C     0.49592   0.15510   0.06970   0.00000  Uiso   1.00
Cu201  Cu    0.96246   0.00850   0.89850   0.00000  Uiso   1.00
Cu202  Cu    0.09865   0.04413   0.85268   0.00000  Uiso   1.00
O203   O     0.05293   0.06115   0.71600   0.00000  Uiso   1.00
O204   O     0.96950   0.02079   0.73220   0.00000  Uiso   1.00
O205   O     0.98147   0.38395   0.12310   0.00000  Uiso   1.00
O206   O     0.03538   0.34798   0.98260   0.00000  Uiso   1.00
O207   O     0.83321   0.02630   0.42110   0.00000  Uiso   1.00
O208   O     0.86639   0.04173   0.22340   0.00000  Uiso   1.00
O209   O     0.83050   0.11720   0.33400   0.00000  Uiso   1.00
O210   O     0.96971   0.10707   0.95860   0.00000  Uiso   1.00
O211   O     0.06161   0.14842   0.93580   0.00000  Uiso   1.00
O212   O     0.04199   0.09180   0.10500   0.00000  Uiso   1.00
O213   O     0.04234   0.99747   0.92710   0.00000  Uiso   1.00
H214   H     0.04610   0.96720   0.89520   0.00000  Uiso   1.00
O215   O     0.94732   0.12987   0.22620   0.00000  Uiso   1.00
S216   S     0.85846   0.06456   0.33984   0.00000  Uiso   1.00
S217   S     0.01978   0.12974   0.01580   0.00000  Uiso   1.00
O218   O     0.15446   0.09256   0.77550   0.00000  Uiso   1.00
H219   H     0.19160   0.08050   0.78510   0.00000  Uiso   1.00
H220   H     0.15560   0.13050   0.80130   0.00000  Uiso   1.00
C221   C     0.99113   0.06937   0.55610   0.00000  Uiso   1.00
C222   C     0.94013   0.05782   0.50770   0.00000  Uiso   1.00
H223   H     0.91530   0.03560   0.54910   0.00000  Uiso   1.00
C224   C     0.92530   0.07869   0.39840   0.00000  Uiso   1.00
C225   C     0.96270   0.11095   0.33850   0.00000  Uiso   1.00
C226   C     0.01340   0.12120   0.38350   0.00000  Uiso   1.00
H227   H     0.03860   0.14220   0.34010   0.00000  Uiso   1.00
C228   C     0.02850   0.10100   0.49360   0.00000  Uiso   1.00
H229   H     0.06340   0.10870   0.52480   0.00000  Uiso   1.00
C230   C     0.96580   0.18249   0.19410   0.00000  Uiso   1.00
C231   C     0.99618   0.18848   0.09330   0.00000  Uiso   1.00
C232   C     0.00922   0.24128   0.05350   0.00000  Uiso   1.00
H233   H     0.02940   0.24560   0.98400   0.00000  Uiso   1.00
C234   C     0.99230   0.28792   0.11660   0.00000  Uiso   1.00
C235   C     0.96270   0.28017   0.21980   0.00000  Uiso   1.00
H236   H     0.95140   0.31080   0.26360   0.00000  Uiso   1.00
C237   C     0.94980   0.22790   0.25850   0.00000  Uiso   1.00
H238   H     0.93010   0.22330   0.32850   0.00000  Uiso   1.00
C239   C     0.00639   0.04816   0.67810   0.00000  Uiso   1.00
C240   C     0.00408   0.34490   0.06970   0.00000  Uiso   1.00
Cu241  Cu    0.00850   0.53754   0.89850   0.00000  Uiso   1.00
Cu242  Cu    0.04413   0.40135   0.85268   0.00000  Uiso   1.00
O243   O     0.06115   0.44707   0.71600   0.00000  Uiso   1.00
O244   O     0.02079   0.53050   0.73220   0.00000  Uiso   1.00
O245   O     0.38395   0.51853   0.12310   0.00000  Uiso   1.00
O246   O     0.34798   0.46462   0.98260   0.00000  Uiso   1.00
O247   O     0.02630   0.66679   0.42110   0.00000  Uiso   1.00
O248   O     0.04173   0.63361   0.22340   0.00000  Uiso   1.00
O249   O     0.11720   0.66950   0.33400   0.00000  Uiso   1.00
O250   O     0.10707   0.53029   0.95860   0.00000  Uiso   1.00
O251   O     0.14842   0.43839   0.93580   0.00000  Uiso   1.00
O252   O     0.09180   0.45801   0.10500   0.00000  Uiso   1.00
O253   O     0.99747   0.45766   0.92710   0.00000  Uiso   1.00
H254   H     0.96720   0.45390   0.89520   0.00000  Uiso   1.00
O255   O     0.12987   0.55268   0.22620   0.00000  Uiso   1.00
S256   S     0.06456   0.64154   0.33984   0.00000  Uiso   1.00
S257   S     0.12974   0.48022   0.01580   0.00000  Uiso   1.00
O258   O     0.09256   0.34554   0.77550   0.00000  Uiso   1.00
H259   H     0.08050   0.30840   0.78510   0.00000  Uiso   1.00
H260   H     0.13050   0.34440   0.80130   0.00000  Uiso   1.00
C261   C     0.06937   0.50887   0.55610   0.00000  Uiso   1.00
C262   C     0.05782   0.55987   0.50770   0.00000  Uiso   1.00
H263   H     0.03560   0.58470   0.54910   0.00000  Uiso   1.00
C264   C     0.07869   0.57470   0.39840   0.00000  Uiso   1.00
C265   C     0.11095   0.53730   0.33850   0.00000  Uiso   1.00
C266   C     0.12120   0.48660   0.38350   0.00000  Uiso   1.00
H267   H     0.14220   0.46140   0.34010   0.00000  Uiso   1.00
C268   C     0.10100   0.47150   0.49360   0.00000  Uiso   1.00
H269   H     0.10870   0.43660   0.52480   0.00000  Uiso   1.00
C270   C     0.18249   0.53420   0.19410   0.00000  Uiso   1.00
C271   C     0.18848   0.50382   0.09330   0.00000  Uiso   1.00
C272   C     0.24128   0.49078   0.05350   0.00000  Uiso   1.00
H273   H     0.24560   0.47060   0.98400   0.00000  Uiso   1.00
C274   C     0.28792   0.50770   0.11660   0.00000  Uiso   1.00
C275   C     0.28017   0.53730   0.21980   0.00000  Uiso   1.00
H276   H     0.31080   0.54860   0.26360   0.00000  Uiso   1.00
C277   C     0.22790   0.55020   0.25850   0.00000  Uiso   1.00
H278   H     0.22330   0.56990   0.32850   0.00000  Uiso   1.00
C279   C     0.04816   0.49361   0.67810   0.00000  Uiso   1.00
C280   C     0.34490   0.49592   0.06970   0.00000  Uiso   1.00
Cu281  Cu    0.49150   0.96246   0.89850   0.00000  Uiso   1.00
Cu282  Cu    0.45587   0.09865   0.85268   0.00000  Uiso   1.00
O283   O     0.43885   0.05293   0.71600   0.00000  Uiso   1.00
O284   O     0.47921   0.96950   0.73220   0.00000  Uiso   1.00
O285   O     0.11605   0.98147   0.12310   0.00000  Uiso   1.00
O286   O     0.15202   0.03538   0.98260   0.00000  Uiso   1.00
O287   O     0.47370   0.83321   0.42110   0.00000  Uiso   1.00
O288   O     0.45827   0.86639   0.22340   0.00000  Uiso   1.00
O289   O     0.38280   0.83050   0.33400   0.00000  Uiso   1.00
O290   O     0.39293   0.96971   0.95860   0.00000  Uiso   1.00
O291   O     0.35158   0.06161   0.93580   0.00000  Uiso   1.00
O292   O     0.40820   0.04199   0.10500   0.00000  Uiso   1.00
O293   O     0.50253   0.04234   0.92710   0.00000  Uiso   1.00
H294   H     0.53280   0.04610   0.89520   0.00000  Uiso   1.00
O295   O     0.37013   0.94732   0.22620   0.00000  Uiso   1.00
S296   S     0.43544   0.85846   0.33984   0.00000  Uiso   1.00
S297   S     0.37026   0.01978   0.01580   0.00000  Uiso   1.00
O298   O     0.40744   0.15446   0.77550   0.00000  Uiso   1.00
H299   H     0.41950   0.19160   0.78510   0.00000  Uiso   1.00
H300   H     0.36950   0.15560   0.80130   0.00000  Uiso   1.00
C301   C     0.43063   0.99113   0.55610   0.00000  Uiso   1.00
C302   C     0.44218   0.94013   0.50770   0.00000  Uiso   1.00
H303   H     0.46440   0.91530   0.54910   0.00000  Uiso   1.00
C304   C     0.42131   0.92530   0.39840   0.00000  Uiso   1.00
C305   C     0.38905   0.96270   0.33850   0.00000  Uiso   1.00
C306   C     0.37880   0.01340   0.38350   0.00000  Uiso   1.00
H307   H     0.35780   0.03860   0.34010   0.00000  Uiso   1.00
C308   C     0.39900   0.02850   0.49360   0.00000  Uiso   1.00
H309   H     0.39130   0.06340   0.52480   0.00000  Uiso   1.00
C310   C     0.31751   0.96580   0.19410   0.00000  Uiso   1.00
C311   C     0.31152   0.99618   0.09330   0.00000  Uiso   1.00
C312   C     0.25872   0.00922   0.05350   0.00000  Uiso   1.00
H313   H     0.25440   0.02940   0.98400   0.00000  Uiso   1.00
C314   C     0.21208   0.99230   0.11660   0.00000  Uiso   1.00
C315   C     0.21983   0.96270   0.21980   0.00000  Uiso   1.00
H316   H     0.18920   0.95140   0.26360   0.00000  Uiso   1.00
C317   C     0.27210   0.94980   0.25850   0.00000  Uiso   1.00
H318   H     0.27670   0.93010   0.32850   0.00000  Uiso   1.00
C319   C     0.45184   0.00639   0.67810   0.00000  Uiso   1.00
C320   C     0.15510   0.00408   0.06970   0.00000  Uiso   1.00
loop_
_geom_bond_atom_site_label_1
_geom_bond_atom_site_label_2
_geom_bond_distance
_geom_bond_site_symmetry_2
_ccdc_geom_bond_type
Cu1    O4      1.911   .     S
Cu1    O13     1.972   .     S
Cu1    O245    1.925   .     S
Cu1    O10     2.480   .     S
Cu1    O172    2.423   .     S
Cu1    O173    1.981   1_554 S
Cu2    O3      1.943   .     S
Cu2    O18     1.985   .     S
Cu2    O86     1.965   .     S
Cu2    O168    2.396   .     S
Cu2    O13     1.955   .     S
O3     C39     1.242   .     S
O4     C39     1.266   .     S
O5     C40     1.245   .     S
O5     Cu281   1.925   .     S
O6     C40     1.243   1_554 S
O6     Cu122   1.965   .     S
O7     S16     1.438   .     S
O8     S16     1.440   .     S
O8     Cu162   2.396   .     S
O9     S16     1.440   .     S
O10    S17     1.475   1_554 S
O11    S17     1.428   1_554 S
O12    S17     1.464   .     S
O12    Cu161   2.423   .     S
O13    H14     0.820   .     S
O13    Cu161   1.981   1_554 S
O15    C25     1.399   .     S
O15    C30     1.394   .     S
S16    C24     1.776   .     S
S17    O10     1.475   1_556 S
S17    O11     1.428   1_556 S
S17    C31     1.761   .     S
O18    H19     0.948   .     S
O18    H20     0.961   .     S
C21    C22     1.375   .     S
C21    C28     1.376   .     S
C21    C39     1.517   .     S
C22    H23     0.930   .     S
C22    C24     1.382   .     S
C24    C25     1.371   .     S
C25    C26     1.348   .     S
C26    H27     0.931   .     S
C26    C28     1.386   .     S
C28    H29     0.932   .     S
C30    C31     1.363   .     S
C30    C37     1.371   .     S
C31    C32     1.387   .     S
C32    H33     0.930   1_556 S
C32    C34     1.394   .     S
H33    C32     0.930   1_554 S
C34    C35     1.381   .     S
C34    C40     1.501   .     S
C35    H36     0.930   .     S
C35    C37     1.371   .     S
C37    H38     0.930   .     S
C40    O6      1.243   1_556 S
Cu41   O44     1.911   .     S
Cu41   O53     1.972   1_465 S
Cu41   O285    1.925   .     S
Cu41   O50     2.480   .     S
Cu41   O212    2.423   1_565 S
Cu41   O213    1.981   1_554 S
Cu42   O43     1.943   .     S
Cu42   O58     1.985   .     S
Cu42   O126    1.965   .     S
Cu42   O208    2.396   1_565 S
Cu42   O53     1.955   1_565 S
O43    C79     1.242   .     S
O44    C79     1.266   1_455 S
O45    C80     1.245   1_455 S
O45    Cu241   1.925   .     S
O46    C80     1.243   1_554 S
O46    Cu82    1.965   .     S
O47    S56     1.438   .     S
O48    S56     1.440   .     S
O48    Cu202   2.396   1_565 S
O49    S56     1.440   .     S
O50    S57     1.475   1_454 S
O51    S57     1.428   1_554 S
O52    S57     1.464   .     S
O52    Cu201   2.423   1_565 S
O53    Cu41    1.972   1_645 S
O53    H54     0.820   .     S
O53    Cu201   1.981   1_554 S
O53    Cu42    1.955   1_545 S
O55    C65     1.399   .     S
O55    C70     1.394   .     S
S56    C64     1.776   .     S
S57    O50     1.475   1_656 S
S57    O51     1.428   1_556 S
S57    C71     1.761   1_655 S
O58    H59     0.948   .     S
O58    H60     0.961   .     S
C61    C62     1.375   .     S
C61    C68     1.376   1_455 S
C61    C79     1.517   1_455 S
C62    H63     0.930   .     S
C62    C64     1.382   .     S
C64    C65     1.371   .     S
C65    C66     1.348   1_455 S
C66    C65     1.348   1_655 S
C66    H67     0.931   .     S
C66    C68     1.386   .     S
C68    C61     1.376   1_655 S
C68    H69     0.932   .     S
C70    C71     1.363   .     S
C70    C77     1.371   .     S
C71    S57     1.761   1_455 S
C71    C72     1.387   1_455 S
C72    C71     1.387   1_655 S
C72    H73     0.930   1_556 S
C72    C74     1.394   1_655 S
H73    C72     0.930   1_554 S
C74    C72     1.394   1_455 S
C74    C75     1.381   .     S
C74    C80     1.501   1_455 S
C75    H76     0.930   .     S
C75    C77     1.371   .     S
C77    H78     0.930   .     S
C79    O44     1.266   1_655 S
C79    C61     1.517   1_655 S
C80    O45     1.245   1_655 S
C80    O46     1.243   1_556 S
C80    C74     1.501   1_655 S
Cu81   O84     1.911   .     S
Cu81   O93     1.972   1_655 S
Cu81   O205    1.925   .     S
Cu81   O90     2.480   .     S
Cu81   O252    2.423   1_655 S
Cu81   O253    1.981   1_554 S
Cu82   O83     1.943   .     S
Cu82   O98     1.985   .     S
Cu82   O248    2.396   1_655 S
Cu82   O93     1.955   1_655 S
O83    C119    1.242   .     S
O84    C119    1.266   .     S
O85    C120    1.245   .     S
O85    Cu161   1.925   .     S
O86    C120    1.243   1_554 S
O87    S96     1.438   .     S
O88    S96     1.440   .     S
O88    Cu242   2.396   1_655 S
O89    S96     1.440   .     S
O90    S97     1.475   1_554 S
O91    S97     1.428   1_554 S
O92    S97     1.464   .     S
O92    Cu241   2.423   1_655 S
O93    Cu81    1.972   1_455 S
O93    H94     0.820   .     S
O93    Cu241   1.981   1_554 S
O93    Cu82    1.955   1_455 S
O95    C105    1.399   .     S
O95    C110    1.394   .     S
S96    C104    1.776   .     S
S97    O90     1.475   1_556 S
S97    O91     1.428   1_556 S
S97    C111    1.761   .     S
O98    H99     0.948   .     S
O98    H100    0.961   .     S
C101   C102    1.375   .     S
C101   C108    1.376   .     S
C101   C119    1.517   .     S
C102   H103    0.930   .     S
C102   C104    1.382   .     S
C104   C105    1.371   .     S
C105   C106    1.348   .     S
C106   H107    0.931   .     S
C106   C108    1.386   .     S
C108   H109    0.932   .     S
C110   C111    1.363   .     S
C110   C117    1.371   .     S
C111   C112    1.387   .     S
C112   H113    0.930   1_556 S
C112   C114    1.394   .     S
H113   C112    0.930   1_554 S
C114   C115    1.381   .     S
C114   C120    1.501   .     S
C115   H116    0.930   .     S
C115   C117    1.371   .     S
C117   H118    0.930   .     S
C120   O86     1.243   1_556 S
Cu121  O124    1.911   .     S
Cu121  O133    1.972   1_545 S
Cu121  O165    1.925   .     S
Cu121  O130    2.480   .     S
Cu121  O292    2.423   .     S
Cu121  O293    1.981   1_554 S
Cu122  O123    1.943   .     S
Cu122  O138    1.985   .     S
Cu122  O288    2.396   .     S
Cu122  O133    1.955   .     S
O123   C159    1.242   .     S
O124   C159    1.266   1_545 S
O125   C160    1.245   1_545 S
O125   Cu201   1.925   .     S
O126   C160    1.243   1_554 S
O127   S136    1.438   .     S
O128   S136    1.440   .     S
O128   Cu282   2.396   .     S
O129   S136    1.440   .     S
O130   S137    1.475   1_544 S
O131   S137    1.428   1_554 S
O132   S137    1.464   .     S
O132   Cu281   2.423   .     S
O133   Cu121   1.972   1_565 S
O133   H134    0.820   .     S
O133   Cu281   1.981   1_554 S
O135   C145    1.399   .     S
O135   C150    1.394   .     S
S136   C144    1.776   .     S
S137   O130    1.475   1_566 S
S137   O131    1.428   1_556 S
S137   C151    1.761   1_565 S
O138   H139    0.948   .     S
O138   H140    0.961   .     S
C141   C142    1.375   .     S
C141   C148    1.376   1_545 S
C141   C159    1.517   1_545 S
C142   H143    0.930   .     S
C142   C144    1.382   .     S
C144   C145    1.371   .     S
C145   C146    1.348   1_545 S
C146   C145    1.348   1_565 S
C146   H147    0.931   .     S
C146   C148    1.386   .     S
C148   C141    1.376   1_565 S
C148   H149    0.932   .     S
C150   C151    1.363   .     S
C150   C157    1.371   .     S
C151   S137    1.761   1_545 S
C151   C152    1.387   1_545 S
C152   C151    1.387   1_565 S
C152   H153    0.930   1_556 S
C152   C154    1.394   1_565 S
H153   C152    0.930   1_554 S
C154   C152    1.394   1_545 S
C154   C155    1.381   .     S
C154   C160    1.501   1_545 S
C155   H156    0.930   .     S
C155   C157    1.371   .     S
C157   H158    0.930   .     S
C159   O124    1.266   1_565 S
C159   C141    1.517   1_565 S
C160   O125    1.245   1_565 S
C160   O126    1.243   1_556 S
C160   C154    1.501   1_565 S
Cu161  O164    1.911   .     S
Cu161  O173    1.972   .     S
Cu161  O170    2.480   .     S
Cu161  O13     1.981   1_556 S
Cu162  O163    1.943   .     S
Cu162  O178    1.985   .     S
Cu162  O246    1.965   .     S
Cu162  O173    1.955   .     S
O163   C199    1.242   .     S
O164   C199    1.266   .     S
O165   C200    1.245   .     S
O166   C200    1.243   1_556 S
O166   Cu282   1.965   .     S
O167   S176    1.438   .     S
O168   S176    1.440   .     S
O169   S176    1.440   .     S
O170   S177    1.475   1_556 S
O171   S177    1.428   1_556 S
O172   S177    1.464   .     S
O173   H174    0.820   .     S
O173   Cu1     1.981   1_556 S
O175   C185    1.399   .     S
O175   C190    1.394   .     S
S176   C184    1.776   .     S
S177   O170    1.475   1_554 S
S177   O171    1.428   1_554 S
S177   C191    1.761   .     S
O178   H179    0.948   .     S
O178   H180    0.961   .     S
C181   C182    1.375   .     S
C181   C188    1.376   .     S
C181   C199    1.517   .     S
C182   H183    0.930   .     S
C182   C184    1.382   .     S
C184   C185    1.371   .     S
C185   C186    1.348   .     S
C186   H187    0.931   .     S
C186   C188    1.386   .     S
C188   H189    0.932   .     S
C190   C191    1.363   .     S
C190   C197    1.371   .     S
C191   C192    1.387   .     S
C192   H193    0.930   1_554 S
C192   C194    1.394   .     S
H193   C192    0.930   1_556 S
C194   C195    1.381   .     S
C194   C200    1.501   .     S
C195   H196    0.930   .     S
C195   C197    1.371   .     S
C197   H198    0.930   .     S
C200   O166    1.243   1_554 S
Cu201  O204    1.911   .     S
Cu201  O213    1.972   1_645 S
Cu201  O210    2.480   .     S
Cu201  O52     2.423   1_545 S
Cu201  O53     1.981   1_556 S
Cu202  O203    1.943   .     S
Cu202  O218    1.985   .     S
Cu202  O286    1.965   .     S
Cu202  O48     2.396   1_545 S
Cu202  O213    1.955   1_545 S
O203   C239    1.242   .     S
O204   C239    1.266   1_655 S
O205   C240    1.245   1_655 S
O206   C240    1.243   1_556 S
O206   Cu242   1.965   .     S
O207   S216    1.438   .     S
O208   S216    1.440   .     S
O208   Cu42    2.396   1_545 S
O209   S216    1.440   .     S
O210   S217    1.475   1_656 S
O211   S217    1.428   1_556 S
O212   S217    1.464   .     S
O212   Cu41    2.423   1_545 S
O213   Cu201   1.972   1_465 S
O213   H214    0.820   .     S
O213   Cu41    1.981   1_556 S
O213   Cu202   1.955   1_565 S
O215   C225    1.399   .     S
O215   C230    1.394   .     S
S216   C224    1.776   .     S
S217   O210    1.475   1_454 S
S217   O211    1.428   1_554 S
S217   C231    1.761   1_455 S
O218   H219    0.948   .     S
O218   H220    0.961   .     S
C221   C222    1.375   .     S
C221   C228    1.376   1_655 S
C221   C239    1.517   1_655 S
C222   H223    0.930   .     S
C222   C224    1.382   .     S
C224   C225    1.371   .     S
C225   C226    1.348   1_655 S
C226   C225    1.348   1_455 S
C226   H227    0.931   .     S
C226   C228    1.386   .     S
C228   C221    1.376   1_455 S
C228   H229    0.932   .     S
C230   C231    1.363   .     S
C230   C237    1.371   .     S
C231   S217    1.761   1_655 S
C231   C232    1.387   1_655 S
C232   C231    1.387   1_455 S
C232   H233    0.930   1_554 S
C232   C234    1.394   1_455 S
H233   C232    0.930   1_556 S
C234   C232    1.394   1_655 S
C234   C235    1.381   .     S
C234   C240    1.501   1_655 S
C235   H236    0.930   .     S
C235   C237    1.371   .     S
C237   H238    0.930   .     S
C239   O204    1.266   1_455 S
C239   C221    1.517   1_455 S
C240   O205    1.245   1_455 S
C240   O206    1.243   1_554 S
C240   C234    1.501   1_455 S
Cu241  O244    1.911   .     S
Cu241  O253    1.972   1_455 S
Cu241  O250    2.480   .     S
Cu241  O92     2.423   1_455 S
Cu241  O93     1.981   1_556 S
Cu242  O243    1.943   .     S
Cu242  O258    1.985   .     S
Cu242  O88     2.396   1_455 S
Cu242  O253    1.955   1_455 S
O243   C279    1.242   .     S
O244   C279    1.266   .     S
O245   C280    1.245   .     S
O246   C280    1.243   1_556 S
O247   S256    1.438   .     S
O248   S256    1.440   .     S
O248   Cu82    2.396   1_455 S
O249   S256    1.440   .     S
O250   S257    1.475   1_556 S
O251   S257    1.428   1_556 S
O252   S257    1.464   .     S
O252   Cu81    2.423   1_455 S
O253   Cu241   1.972   1_655 S
O253   H254    0.820   .     S
O253   Cu81    1.981   1_556 S
O253   Cu242   1.955   1_655 S
O255   C265    1.399   .     S
O255   C270    1.394   .     S
S256   C264    1.776   .     S
S257   O250    1.475   1_554 S
S257   O251    1.428   1_554 S
S257   C271    1.761   .     S
O258   H259    0.948   .     S
O258   H260    0.961   .     S
C261   C262    1.375   .     S
C261   C268    1.376   .     S
C261   C279    1.517   .     S
C262   H263    0.930   .     S
C262   C264    1.382   .     S
C264   C265    1.371   .     S
C265   C266    1.348   .     S
C266   H267    0.931   .     S
C266   C268    1.386   .     S
C268   H269    0.932   .     S
C270   C271    1.363   .     S
C270   C277    1.371   .     S
C271   C272    1.387   .     S
C272   H273    0.930   1_554 S
C272   C274    1.394   .     S
H273   C272    0.930   1_556 S
C274   C275    1.381   .     S
C274   C280    1.501   .     S
C275   H276    0.930   .     S
C275   C277    1.371   .     S
C277   H278    0.930   .     S
C280   O246    1.243   1_554 S
Cu281  O284    1.911   .     S
Cu281  O293    1.972   1_565 S
Cu281  O290    2.480   .     S
Cu281  O133    1.981   1_556 S
Cu282  O283    1.943   .     S
Cu282  O298    1.985   .     S
Cu282  O293    1.955   .     S
O283   C319    1.242   .     S
O284   C319    1.266   1_565 S
O285   C320    1.245   1_565 S
O286   C320    1.243   1_556 S
O287   S296    1.438   .     S
O288   S296    1.440   .     S
O289   S296    1.440   .     S
O290   S297    1.475   1_566 S
O291   S297    1.428   1_556 S
O292   S297    1.464   .     S
O293   Cu281   1.972   1_545 S
O293   H294    0.820   .     S
O293   Cu121   1.981   1_556 S
O295   C305    1.399   .     S
O295   C310    1.394   .     S
S296   C304    1.776   .     S
S297   O290    1.475   1_544 S
S297   O291    1.428   1_554 S
S297   C311    1.761   1_545 S
O298   H299    0.948   .     S
O298   H300    0.961   .     S
C301   C302    1.375   .     S
C301   C308    1.376   1_565 S
C301   C319    1.517   1_565 S
C302   H303    0.930   .     S
C302   C304    1.382   .     S
C304   C305    1.371   .     S
C305   C306    1.348   1_565 S
C306   C305    1.348   1_545 S
C306   H307    0.931   .     S
C306   C308    1.386   .     S
C308   C301    1.376   1_545 S
C308   H309    0.932   .     S
C310   C311    1.363   .     S
C310   C317    1.371   .     S
C311   S297    1.761   1_565 S
C311   C312    1.387   1_565 S
C312   C311    1.387   1_545 S
C312   H313    0.930   1_554 S
C312   C314    1.394   1_545 S
H313   C312    0.930   1_556 S
C314   C312    1.394   1_565 S
C314   C315    1.381   .     S
C314   C320    1.501   1_565 S
C315   H316    0.930   .     S
C315   C317    1.371   .     S
C317   H318    0.930   .     S
C319   O284    1.266   1_545 S
C319   C301    1.517   1_545 S
C320   O285    1.245   1_545 S
C320   O286    1.243   1_554 S
C320   C314    1.501   1_545 S
