data_VOLXIF_FSR
_audit_creation_date              2024-06-11
_audit_creation_method            'Materials Studio'
_symmetry_space_group_name_H-M    'P1'
_symmetry_Int_Tables_number       1
_symmetry_cell_setting            triclinic
loop_
_symmetry_equiv_pos_as_xyz
  x,y,z
_cell_length_a                    7.7002
_cell_length_b                    16.4928
_cell_length_c                    9.1611
_cell_angle_alpha                 90.0000
_cell_angle_beta                  108.3140
_cell_angle_gamma                 90.0000
loop_
_atom_site_label
_atom_site_type_symbol
_atom_site_fract_x
_atom_site_fract_y
_atom_site_fract_z
_atom_site_U_iso_or_equiv
_atom_site_adp_type
_atom_site_occupancy
Zn1    Zn    0.02930   0.16343   0.99248   0.00000  Uiso   1.00
O2     O    -0.12510   0.25052   0.84550   0.00000  Uiso   1.00
O3     O    -0.13790   0.07038   0.87270   0.00000  Uiso   1.00
O4     O    -0.12510   0.32205   0.63900   0.00000  Uiso   1.00
O5     O    -0.17380   0.93644   0.88940   0.00000  Uiso   1.00
O6     O     0.19370   0.18157   0.85280   0.00000  Uiso   1.00
O7     O     0.20440   0.26015   0.65690   0.00000  Uiso   1.00
C8     C     0.13210   0.23430   0.75260   0.00000  Uiso   1.00
C9     C    -0.09070   0.00190   0.93100   0.00000  Uiso   1.00
C10    C    -0.05660   0.27210   0.74640   0.00000  Uiso   1.00
Zn11   Zn   -0.02930   0.66343   0.50752   0.00000  Uiso   1.00
O12    O     0.12510   0.75052   0.65450   0.00000  Uiso   1.00
O13    O     0.13790   0.57038   0.62730   0.00000  Uiso   1.00
O14    O     0.12510   0.82205   0.86100   0.00000  Uiso   1.00
O15    O     0.17380   0.43644   0.61060   0.00000  Uiso   1.00
O16    O    -0.19370   0.68157   0.64720   0.00000  Uiso   1.00
O17    O    -0.20440   0.76015   0.84310   0.00000  Uiso   1.00
C18    C    -0.13210   0.73430   0.74740   0.00000  Uiso   1.00
C19    C     0.09070   0.50190   0.56900   0.00000  Uiso   1.00
C20    C     0.05660   0.77210   0.75360   0.00000  Uiso   1.00
Zn21   Zn   -0.02930   0.83657   0.00752   0.00000  Uiso   1.00
O22    O     0.12510   0.74948   0.15450   0.00000  Uiso   1.00
O23    O     0.13790   0.92962   0.12730   0.00000  Uiso   1.00
O24    O     0.12510   0.67795   0.36100   0.00000  Uiso   1.00
O25    O     0.17380   0.06356   0.11060   0.00000  Uiso   1.00
O26    O    -0.19370   0.81843   0.14720   0.00000  Uiso   1.00
O27    O    -0.20440   0.73985   0.34310   0.00000  Uiso   1.00
C28    C    -0.13210   0.76570   0.24740   0.00000  Uiso   1.00
C29    C     0.09070   0.99810   0.06900   0.00000  Uiso   1.00
C30    C     0.05660   0.72790   0.25360   0.00000  Uiso   1.00
Zn31   Zn    0.02930   0.33657   0.49248   0.00000  Uiso   1.00
O32    O    -0.12510   0.24948   0.34550   0.00000  Uiso   1.00
O33    O    -0.13790   0.42962   0.37270   0.00000  Uiso   1.00
O34    O    -0.12510   0.17795   0.13900   0.00000  Uiso   1.00
O35    O    -0.17380   0.56356   0.38940   0.00000  Uiso   1.00
O36    O     0.19370   0.31843   0.35280   0.00000  Uiso   1.00
O37    O     0.20440   0.23985   0.15690   0.00000  Uiso   1.00
C38    C     0.13210   0.26570   0.25260   0.00000  Uiso   1.00
C39    C    -0.09070   0.49810   0.43100   0.00000  Uiso   1.00
C40    C    -0.05660   0.22790   0.24640   0.00000  Uiso   1.00
loop_
_geom_bond_atom_site_label_1
_geom_bond_atom_site_label_2
_geom_bond_distance
_geom_bond_site_symmetry_2
_ccdc_geom_bond_type
Zn1    O2      2.070   .     S
Zn1    O3      2.081   .     S
Zn1    O6      2.085   .     S
Zn1    O25     2.089   1_556 S
Zn1    O34     2.068   1_556 S
Zn1    O37     2.097   1_556 S
O2     C10     1.237   .     S
O3     C9      1.253   .     S
O4     C10     1.264   .     S
O4     Zn31    2.068   .     S
O5     C9      1.252   1_565 S
O5     Zn21    2.089   1_556 S
O6     C8      1.245   .     S
O7     C8      1.252   .     S
O7     Zn31    2.097   .     S
C8     C10     1.566   .     S
C9     O5      1.252   1_545 S
C9     C29     1.563   1_546 S
Zn11   O12     2.070   .     S
Zn11   O13     2.081   .     S
Zn11   O16     2.085   .     S
Zn11   O35     2.089   .     S
Zn11   O24     2.068   .     S
Zn11   O27     2.097   .     S
O12    C20     1.237   .     S
O13    C19     1.253   .     S
O14    C20     1.264   .     S
O14    Zn21    2.068   1_556 S
O15    C19     1.252   .     S
O15    Zn31    2.089   .     S
O16    C18     1.245   .     S
O17    C18     1.252   .     S
O17    Zn21    2.097   1_556 S
C18    C20     1.566   .     S
C19    C39     1.563   .     S
Zn21   O22     2.070   .     S
Zn21   O23     2.081   .     S
Zn21   O26     2.085   .     S
Zn21   O5      2.089   1_554 S
Zn21   O14     2.068   1_554 S
Zn21   O17     2.097   1_554 S
O22    C30     1.237   .     S
O23    C29     1.253   .     S
O24    C30     1.264   .     S
O25    C29     1.252   1_545 S
O25    Zn1     2.089   1_554 S
O26    C28     1.245   .     S
O27    C28     1.252   .     S
C28    C30     1.566   .     S
C29    O25     1.252   1_565 S
C29    C9      1.563   1_564 S
Zn31   O32     2.070   .     S
Zn31   O33     2.081   .     S
Zn31   O36     2.085   .     S
O32    C40     1.237   .     S
O33    C39     1.253   .     S
O34    C40     1.264   .     S
O34    Zn1     2.068   1_554 S
O35    C39     1.252   .     S
O36    C38     1.245   .     S
O37    C38     1.252   .     S
O37    Zn1     2.097   1_554 S
C38    C40     1.566   .     S
