data_WAQNAH_FSR
_audit_creation_date              2024-06-11
_audit_creation_method            'Materials Studio'
_symmetry_space_group_name_H-M    'P1'
_symmetry_Int_Tables_number       1
_symmetry_cell_setting            triclinic
loop_
_symmetry_equiv_pos_as_xyz
  x,y,z
_cell_length_a                    18.4346
_cell_length_b                    9.6448
_cell_length_c                    15.7845
_cell_angle_alpha                 90.0000
_cell_angle_beta                  108.5940
_cell_angle_gamma                 90.0000
loop_
_atom_site_label
_atom_site_type_symbol
_atom_site_fract_x
_atom_site_fract_y
_atom_site_fract_z
_atom_site_U_iso_or_equiv
_atom_site_adp_type
_atom_site_occupancy
Zn1    Zn    0.89214   0.25364   0.25057   0.00000  Uiso   1.00
Zn2    Zn    0.59909   0.26132   0.06401   0.00000  Uiso   1.00
O3     O     0.84296   0.43540   0.21941   0.00000  Uiso   1.00
O4     O     0.83946   0.44280   0.07655   0.00000  Uiso   1.00
O5     O     0.67749   0.40400   0.08750   0.00000  Uiso   1.00
O6     O     0.58001   0.54240   0.07470   0.00000  Uiso   1.00
O7     O     0.65049   0.08440   0.05780   0.00000  Uiso   1.00
O8     O     0.68319   0.07960   0.20576   0.00000  Uiso   1.00
O9     O     0.83270   0.10850   0.16961   0.00000  Uiso   1.00
O10    O     0.91405   0.96880   0.26587   0.00000  Uiso   1.00
O11    O     0.81729   0.19880   0.32918   0.00000  Uiso   1.00
H12    H     0.77680   0.15720   0.29570   0.00000  Uiso   1.00
H13    H     0.80340   0.27300   0.35070   0.00000  Uiso   1.00
O14    O     0.96656   0.27950   0.16771   0.00000  Uiso   1.00
H15    H     0.01000   0.32860   0.19470   0.00000  Uiso   1.00
H16    H     0.94230   0.32720   0.11740   0.00000  Uiso   1.00
O17    O     0.53130   0.27260   0.93463   0.00000  Uiso   1.00
H18    H     0.49380   0.33030   0.92960   0.00000  Uiso   1.00
H19    H     0.55300   0.29800   0.90400   0.00000  Uiso   1.00
N20    N     0.97851   0.28510   0.36578   0.00000  Uiso   1.00
N21    N     0.51478   0.27140   0.61810   0.00000  Uiso   1.00
C22    C     0.00973   0.41180   0.38520   0.00000  Uiso   1.00
H23    H     0.99050   0.48370   0.34500   0.00000  Uiso   1.00
C24    C     0.06894   0.43950   0.46210   0.00000  Uiso   1.00
H25    H     0.08920   0.52850   0.47300   0.00000  Uiso   1.00
C26    C     0.09825   0.33460   0.52310   0.00000  Uiso   1.00
C27    C     0.06600   0.20420   0.50280   0.00000  Uiso   1.00
H28    H     0.08440   0.13090   0.54210   0.00000  Uiso   1.00
C29    C     0.00720   0.18250   0.42510   0.00000  Uiso   1.00
H30    H     0.98640   0.09400   0.41280   0.00000  Uiso   1.00
C31    C     0.16440   0.35970   0.60680   0.00000  Uiso   1.00
H32    H     0.16040   0.29750   0.65340   0.00000  Uiso   1.00
H33    H     0.16190   0.45400   0.62700   0.00000  Uiso   1.00
C34    C     0.24080   0.33720   0.59160   0.00000  Uiso   1.00
H35    H     0.24600   0.40300   0.54740   0.00000  Uiso   1.00
H36    H     0.24220   0.24460   0.56830   0.00000  Uiso   1.00
C37    C     0.30754   0.35490   0.67760   0.00000  Uiso   1.00
H38    H     0.30730   0.44860   0.70000   0.00000  Uiso   1.00
H39    H     0.30160   0.29130   0.72250   0.00000  Uiso   1.00
C40    C     0.48860   0.40130   0.61840   0.00000  Uiso   1.00
H41    H     0.51520   0.47340   0.60250   0.00000  Uiso   1.00
C42    C     0.42440   0.43310   0.64100   0.00000  Uiso   1.00
H43    H     0.40920   0.52490   0.64200   0.00000  Uiso   1.00
C44    C     0.38284   0.32780   0.66230   0.00000  Uiso   1.00
C45    C     0.41050   0.19450   0.66340   0.00000  Uiso   1.00
H46    H     0.38500   0.12080   0.67930   0.00000  Uiso   1.00
C47    C     0.47550   0.17030   0.64130   0.00000  Uiso   1.00
H48    H     0.49290   0.07960   0.64250   0.00000  Uiso   1.00
C49    C     0.78290   0.62570   0.13460   0.00000  Uiso   1.00
C50    C     0.70340   0.64430   0.10545   0.00000  Uiso   1.00
C51    C     0.67434   0.77820   0.10210   0.00000  Uiso   1.00
H52    H     0.62170   0.79150   0.07910   0.00000  Uiso   1.00
C53    C     0.72111   0.89210   0.13200   0.00000  Uiso   1.00
C54    C     0.80077   0.87230   0.16520   0.00000  Uiso   1.00
C55    C     0.82985   0.73970   0.16440   0.00000  Uiso   1.00
H56    H     0.88260   0.72690   0.18460   0.00000  Uiso   1.00
C57    C     0.82325   0.48810   0.14160   0.00000  Uiso   1.00
C58    C     0.64894   0.52380   0.08710   0.00000  Uiso   1.00
C59    C     0.68379   0.03060   0.13400   0.00000  Uiso   1.00
C60    C     0.85415   0.98960   0.20360   0.00000  Uiso   1.00
Zn61   Zn    0.10786   0.75364   0.24943   0.00000  Uiso   1.00
Zn62   Zn    0.40091   0.76132   0.43599   0.00000  Uiso   1.00
O63    O     0.15704   0.93540   0.28059   0.00000  Uiso   1.00
O64    O     0.16054   0.94280   0.42345   0.00000  Uiso   1.00
O65    O     0.32251   0.90400   0.41250   0.00000  Uiso   1.00
O66    O     0.41999   0.04240   0.42530   0.00000  Uiso   1.00
O67    O     0.34951   0.58440   0.44220   0.00000  Uiso   1.00
O68    O     0.31681   0.57960   0.29424   0.00000  Uiso   1.00
O69    O     0.16730   0.60850   0.33039   0.00000  Uiso   1.00
O70    O     0.08595   0.46880   0.23413   0.00000  Uiso   1.00
O71    O     0.18271   0.69880   0.17082   0.00000  Uiso   1.00
H72    H     0.22320   0.65720   0.20430   0.00000  Uiso   1.00
H73    H     0.19660   0.77300   0.14930   0.00000  Uiso   1.00
O74    O     0.03344   0.77950   0.33229   0.00000  Uiso   1.00
H75    H     0.99000   0.82860   0.30530   0.00000  Uiso   1.00
H76    H     0.05770   0.82720   0.38260   0.00000  Uiso   1.00
O77    O     0.46870   0.77260   0.56537   0.00000  Uiso   1.00
H78    H     0.50620   0.83030   0.57040   0.00000  Uiso   1.00
H79    H     0.44700   0.79800   0.59600   0.00000  Uiso   1.00
N80    N     0.02149   0.78510   0.13422   0.00000  Uiso   1.00
N81    N     0.48522   0.77140   0.88190   0.00000  Uiso   1.00
C82    C     0.99027   0.91180   0.11480   0.00000  Uiso   1.00
H83    H     0.00950   0.98370   0.15500   0.00000  Uiso   1.00
C84    C     0.93106   0.93950   0.03790   0.00000  Uiso   1.00
H85    H     0.91080   0.02850   0.02700   0.00000  Uiso   1.00
C86    C     0.90175   0.83460   0.97690   0.00000  Uiso   1.00
C87    C     0.93400   0.70420   0.99720   0.00000  Uiso   1.00
H88    H     0.91560   0.63090   0.95790   0.00000  Uiso   1.00
C89    C     0.99280   0.68250   0.07490   0.00000  Uiso   1.00
H90    H     0.01360   0.59400   0.08720   0.00000  Uiso   1.00
C91    C     0.83560   0.85970   0.89320   0.00000  Uiso   1.00
H92    H     0.83960   0.79750   0.84660   0.00000  Uiso   1.00
H93    H     0.83810   0.95400   0.87300   0.00000  Uiso   1.00
C94    C     0.75920   0.83720   0.90840   0.00000  Uiso   1.00
H95    H     0.75400   0.90300   0.95260   0.00000  Uiso   1.00
H96    H     0.75780   0.74460   0.93170   0.00000  Uiso   1.00
C97    C     0.69246   0.85490   0.82240   0.00000  Uiso   1.00
H98    H     0.69270   0.94860   0.80000   0.00000  Uiso   1.00
H99    H     0.69840   0.79130   0.77750   0.00000  Uiso   1.00
C100   C     0.51140   0.90130   0.88160   0.00000  Uiso   1.00
H101   H     0.48480   0.97340   0.89750   0.00000  Uiso   1.00
C102   C     0.57560   0.93310   0.85900   0.00000  Uiso   1.00
H103   H     0.59080   0.02490   0.85800   0.00000  Uiso   1.00
C104   C     0.61716   0.82780   0.83770   0.00000  Uiso   1.00
C105   C     0.58950   0.69450   0.83660   0.00000  Uiso   1.00
H106   H     0.61500   0.62080   0.82070   0.00000  Uiso   1.00
C107   C     0.52450   0.67030   0.85870   0.00000  Uiso   1.00
H108   H     0.50710   0.57960   0.85750   0.00000  Uiso   1.00
C109   C     0.21710   0.12570   0.36540   0.00000  Uiso   1.00
C110   C     0.29660   0.14430   0.39455   0.00000  Uiso   1.00
C111   C     0.32566   0.27820   0.39790   0.00000  Uiso   1.00
H112   H     0.37830   0.29150   0.42090   0.00000  Uiso   1.00
C113   C     0.27889   0.39210   0.36800   0.00000  Uiso   1.00
C114   C     0.19923   0.37230   0.33480   0.00000  Uiso   1.00
C115   C     0.17015   0.23970   0.33560   0.00000  Uiso   1.00
H116   H     0.11740   0.22690   0.31540   0.00000  Uiso   1.00
C117   C     0.17675   0.98810   0.35840   0.00000  Uiso   1.00
C118   C     0.35106   0.02380   0.41290   0.00000  Uiso   1.00
C119   C     0.31621   0.53060   0.36600   0.00000  Uiso   1.00
C120   C     0.14585   0.48960   0.29640   0.00000  Uiso   1.00
Zn121  Zn    0.10786   0.74636   0.74943   0.00000  Uiso   1.00
Zn122  Zn    0.40091   0.73868   0.93599   0.00000  Uiso   1.00
O123   O     0.15704   0.56460   0.78059   0.00000  Uiso   1.00
O124   O     0.16054   0.55720   0.92345   0.00000  Uiso   1.00
O125   O     0.32251   0.59600   0.91250   0.00000  Uiso   1.00
O126   O     0.41999   0.45760   0.92530   0.00000  Uiso   1.00
O127   O     0.34951   0.91560   0.94220   0.00000  Uiso   1.00
O128   O     0.31681   0.92040   0.79424   0.00000  Uiso   1.00
O129   O     0.16730   0.89150   0.83039   0.00000  Uiso   1.00
O130   O     0.08595   0.03120   0.73413   0.00000  Uiso   1.00
O131   O     0.18271   0.80120   0.67082   0.00000  Uiso   1.00
H132   H     0.22320   0.84280   0.70430   0.00000  Uiso   1.00
H133   H     0.19660   0.72700   0.64930   0.00000  Uiso   1.00
O134   O     0.03344   0.72050   0.83229   0.00000  Uiso   1.00
H135   H     0.99000   0.67140   0.80530   0.00000  Uiso   1.00
H136   H     0.05770   0.67280   0.88260   0.00000  Uiso   1.00
O137   O     0.46870   0.72740   0.06537   0.00000  Uiso   1.00
H138   H     0.50620   0.66970   0.07040   0.00000  Uiso   1.00
H139   H     0.44700   0.70200   0.09600   0.00000  Uiso   1.00
N140   N     0.02149   0.71490   0.63422   0.00000  Uiso   1.00
N141   N     0.48522   0.72860   0.38190   0.00000  Uiso   1.00
C142   C     0.99027   0.58820   0.61480   0.00000  Uiso   1.00
H143   H     0.00950   0.51630   0.65500   0.00000  Uiso   1.00
C144   C     0.93106   0.56050   0.53790   0.00000  Uiso   1.00
H145   H     0.91080   0.47150   0.52700   0.00000  Uiso   1.00
C146   C     0.90175   0.66540   0.47690   0.00000  Uiso   1.00
C147   C     0.93400   0.79580   0.49720   0.00000  Uiso   1.00
H148   H     0.91560   0.86910   0.45790   0.00000  Uiso   1.00
C149   C     0.99280   0.81750   0.57490   0.00000  Uiso   1.00
H150   H     0.01360   0.90600   0.58720   0.00000  Uiso   1.00
C151   C     0.83560   0.64030   0.39320   0.00000  Uiso   1.00
H152   H     0.83960   0.70250   0.34660   0.00000  Uiso   1.00
H153   H     0.83810   0.54600   0.37300   0.00000  Uiso   1.00
C154   C     0.75920   0.66280   0.40840   0.00000  Uiso   1.00
H155   H     0.75400   0.59700   0.45260   0.00000  Uiso   1.00
H156   H     0.75780   0.75540   0.43170   0.00000  Uiso   1.00
C157   C     0.69246   0.64510   0.32240   0.00000  Uiso   1.00
H158   H     0.69270   0.55140   0.30000   0.00000  Uiso   1.00
H159   H     0.69840   0.70870   0.27750   0.00000  Uiso   1.00
C160   C     0.51140   0.59870   0.38160   0.00000  Uiso   1.00
H161   H     0.48480   0.52660   0.39750   0.00000  Uiso   1.00
C162   C     0.57560   0.56690   0.35900   0.00000  Uiso   1.00
H163   H     0.59080   0.47510   0.35800   0.00000  Uiso   1.00
C164   C     0.61716   0.67220   0.33770   0.00000  Uiso   1.00
C165   C     0.58950   0.80550   0.33660   0.00000  Uiso   1.00
H166   H     0.61500   0.87920   0.32070   0.00000  Uiso   1.00
C167   C     0.52450   0.82970   0.35870   0.00000  Uiso   1.00
H168   H     0.50710   0.92040   0.35750   0.00000  Uiso   1.00
C169   C     0.21710   0.37430   0.86540   0.00000  Uiso   1.00
C170   C     0.29660   0.35570   0.89455   0.00000  Uiso   1.00
C171   C     0.32566   0.22180   0.89790   0.00000  Uiso   1.00
H172   H     0.37830   0.20850   0.92090   0.00000  Uiso   1.00
C173   C     0.27889   0.10790   0.86800   0.00000  Uiso   1.00
C174   C     0.19923   0.12770   0.83480   0.00000  Uiso   1.00
C175   C     0.17015   0.26030   0.83560   0.00000  Uiso   1.00
H176   H     0.11740   0.27310   0.81540   0.00000  Uiso   1.00
C177   C     0.17675   0.51190   0.85840   0.00000  Uiso   1.00
C178   C     0.35106   0.47620   0.91290   0.00000  Uiso   1.00
C179   C     0.31621   0.96940   0.86600   0.00000  Uiso   1.00
C180   C     0.14585   0.01040   0.79640   0.00000  Uiso   1.00
Zn181  Zn    0.89214   0.24636   0.75057   0.00000  Uiso   1.00
Zn182  Zn    0.59909   0.23868   0.56401   0.00000  Uiso   1.00
O183   O     0.84296   0.06460   0.71941   0.00000  Uiso   1.00
O184   O     0.83946   0.05720   0.57655   0.00000  Uiso   1.00
O185   O     0.67749   0.09600   0.58750   0.00000  Uiso   1.00
O186   O     0.58001   0.95760   0.57470   0.00000  Uiso   1.00
O187   O     0.65049   0.41560   0.55780   0.00000  Uiso   1.00
O188   O     0.68319   0.42040   0.70576   0.00000  Uiso   1.00
O189   O     0.83270   0.39150   0.66961   0.00000  Uiso   1.00
O190   O     0.91405   0.53120   0.76587   0.00000  Uiso   1.00
O191   O     0.81729   0.30120   0.82918   0.00000  Uiso   1.00
H192   H     0.77680   0.34280   0.79570   0.00000  Uiso   1.00
H193   H     0.80340   0.22700   0.85070   0.00000  Uiso   1.00
O194   O     0.96656   0.22050   0.66771   0.00000  Uiso   1.00
H195   H     0.01000   0.17140   0.69470   0.00000  Uiso   1.00
H196   H     0.94230   0.17280   0.61740   0.00000  Uiso   1.00
O197   O     0.53130   0.22740   0.43463   0.00000  Uiso   1.00
H198   H     0.49380   0.16970   0.42960   0.00000  Uiso   1.00
H199   H     0.55300   0.20200   0.40400   0.00000  Uiso   1.00
N200   N     0.97851   0.21490   0.86578   0.00000  Uiso   1.00
N201   N     0.51478   0.22860   0.11810   0.00000  Uiso   1.00
C202   C     0.00973   0.08820   0.88520   0.00000  Uiso   1.00
H203   H     0.99050   0.01630   0.84500   0.00000  Uiso   1.00
C204   C     0.06894   0.06050   0.96210   0.00000  Uiso   1.00
H205   H     0.08920   0.97150   0.97300   0.00000  Uiso   1.00
C206   C     0.09825   0.16540   0.02310   0.00000  Uiso   1.00
C207   C     0.06600   0.29580   0.00280   0.00000  Uiso   1.00
H208   H     0.08440   0.36910   0.04210   0.00000  Uiso   1.00
C209   C     0.00720   0.31750   0.92510   0.00000  Uiso   1.00
H210   H     0.98640   0.40600   0.91280   0.00000  Uiso   1.00
C211   C     0.16440   0.14030   0.10680   0.00000  Uiso   1.00
H212   H     0.16040   0.20250   0.15340   0.00000  Uiso   1.00
H213   H     0.16190   0.04600   0.12700   0.00000  Uiso   1.00
C214   C     0.24080   0.16280   0.09160   0.00000  Uiso   1.00
H215   H     0.24600   0.09700   0.04740   0.00000  Uiso   1.00
H216   H     0.24220   0.25540   0.06830   0.00000  Uiso   1.00
C217   C     0.30754   0.14510   0.17760   0.00000  Uiso   1.00
H218   H     0.30730   0.05140   0.20000   0.00000  Uiso   1.00
H219   H     0.30160   0.20870   0.22250   0.00000  Uiso   1.00
C220   C     0.48860   0.09870   0.11840   0.00000  Uiso   1.00
H221   H     0.51520   0.02660   0.10250   0.00000  Uiso   1.00
C222   C     0.42440   0.06690   0.14100   0.00000  Uiso   1.00
H223   H     0.40920   0.97510   0.14200   0.00000  Uiso   1.00
C224   C     0.38284   0.17220   0.16230   0.00000  Uiso   1.00
C225   C     0.41050   0.30550   0.16340   0.00000  Uiso   1.00
H226   H     0.38500   0.37920   0.17930   0.00000  Uiso   1.00
C227   C     0.47550   0.32970   0.14130   0.00000  Uiso   1.00
H228   H     0.49290   0.42040   0.14250   0.00000  Uiso   1.00
C229   C     0.78290   0.87430   0.63460   0.00000  Uiso   1.00
C230   C     0.70340   0.85570   0.60545   0.00000  Uiso   1.00
C231   C     0.67434   0.72180   0.60210   0.00000  Uiso   1.00
H232   H     0.62170   0.70850   0.57910   0.00000  Uiso   1.00
C233   C     0.72111   0.60790   0.63200   0.00000  Uiso   1.00
C234   C     0.80077   0.62770   0.66520   0.00000  Uiso   1.00
C235   C     0.82985   0.76030   0.66440   0.00000  Uiso   1.00
H236   H     0.88260   0.77310   0.68460   0.00000  Uiso   1.00
C237   C     0.82325   0.01190   0.64160   0.00000  Uiso   1.00
C238   C     0.64894   0.97620   0.58710   0.00000  Uiso   1.00
C239   C     0.68379   0.46940   0.63400   0.00000  Uiso   1.00
C240   C     0.85415   0.51040   0.70360   0.00000  Uiso   1.00
loop_
_geom_bond_atom_site_label_1
_geom_bond_atom_site_label_2
_geom_bond_distance
_geom_bond_site_symmetry_2
_ccdc_geom_bond_type
Zn1    O3      1.963   .     S
Zn1    O11     2.194   .     S
Zn1    O14     2.191   .     S
Zn1    N20     2.022   .     S
Zn1    O9      1.975   .     S
Zn2    O5      1.944   .     S
Zn2    O17     2.029   1_554 S
Zn2    O7      1.969   .     S
Zn2    N201    2.022   .     S
O3     C57     1.271   .     S
O4     C57     1.237   .     S
O5     C58     1.269   .     S
O6     C58     1.236   .     S
O7     C59     1.274   .     S
O8     C59     1.231   .     S
O9     C60     1.274   1_545 S
O10    C60     1.238   .     S
O11    H12     0.864   .     S
O11    H13     0.865   .     S
O14    H15     0.911   1_655 S
O14    H16     0.903   .     S
H15    O14     0.911   1_455 S
O17    Zn2     2.029   1_556 S
O17    H18     0.871   .     S
O17    H19     0.760   .     S
N20    C22     1.344   1_655 S
N20    C29     1.349   1_655 S
N21    C40     1.343   .     S
N21    C47     1.334   .     S
N21    Zn182   2.022   .     S
C22    N20     1.344   1_455 S
C22    H23     0.930   1_455 S
C22    C24     1.375   .     S
H23    C22     0.930   1_655 S
C24    H25     0.930   .     S
C24    C26     1.382   .     S
C26    C27     1.384   .     S
C26    C31     1.505   .     S
C27    H28     0.930   .     S
C27    C29     1.369   .     S
C29    N20     1.349   1_455 S
C29    H30     0.930   1_455 S
H30    C29     0.930   1_655 S
C31    H32     0.970   .     S
C31    H33     0.970   .     S
C31    C34     1.518   .     S
C34    H35     0.970   .     S
C34    H36     0.969   .     S
C34    C37     1.523   .     S
C37    H38     0.971   .     S
C37    H39     0.970   .     S
C37    C44     1.506   .     S
C40    H41     0.930   .     S
C40    C42     1.375   .     S
C42    H43     0.930   .     S
C42    C44     1.377   .     S
C44    C45     1.381   .     S
C45    H46     0.930   .     S
C45    C47     1.371   .     S
C47    H48     0.930   .     S
C49    C50     1.401   .     S
C49    C55     1.386   .     S
C49    C57     1.508   .     S
C50    C51     1.393   .     S
C50    C58     1.502   .     S
C51    H52     0.930   .     S
C51    C53     1.383   .     S
C53    C54     1.406   .     S
C53    C59     1.507   1_565 S
C54    C60     1.495   .     S
C54    C55     1.388   .     S
C55    H56     0.930   .     S
C59    C53     1.507   1_545 S
C60    O9      1.274   1_565 S
Zn61   O63     1.963   .     S
Zn61   O71     2.194   .     S
Zn61   O74     2.191   .     S
Zn61   N80     2.022   .     S
Zn61   O69     1.975   .     S
Zn62   O65     1.944   .     S
Zn62   O77     2.029   .     S
Zn62   O67     1.969   .     S
Zn62   N141    2.022   .     S
O63    C117    1.271   .     S
O64    C117    1.237   .     S
O65    C118    1.269   1_565 S
O66    C118    1.236   .     S
O67    C119    1.274   .     S
O68    C119    1.231   .     S
O69    C120    1.274   .     S
O70    C120    1.238   .     S
O71    H72     0.864   .     S
O71    H73     0.865   .     S
O74    H75     0.911   1_455 S
O74    H76     0.903   .     S
H75    O74     0.911   1_655 S
O77    H78     0.871   .     S
O77    H79     0.760   .     S
N80    C82     1.344   1_455 S
N80    C89     1.349   1_455 S
N81    C100    1.343   .     S
N81    C107    1.334   .     S
N81    Zn122   2.022   .     S
C82    N80     1.344   1_655 S
C82    H83     0.930   1_655 S
C82    C84     1.375   .     S
H83    C82     0.930   1_455 S
C84    H85     0.930   1_565 S
C84    C86     1.382   1_554 S
H85    C84     0.930   1_545 S
C86    C84     1.382   1_556 S
C86    C87     1.384   .     S
C86    C91     1.505   .     S
C87    H88     0.930   .     S
C87    C89     1.369   1_556 S
C89    N80     1.349   1_655 S
C89    H90     0.930   1_655 S
C89    C87     1.369   1_554 S
H90    C89     0.930   1_455 S
C91    H92     0.970   .     S
C91    H93     0.970   .     S
C91    C94     1.518   .     S
C94    H95     0.970   .     S
C94    H96     0.969   .     S
C94    C97     1.523   .     S
C97    H98     0.971   .     S
C97    H99     0.970   .     S
C97    C104    1.506   .     S
C100   H101    0.930   .     S
C100   C102    1.375   .     S
C102   H103    0.930   1_565 S
C102   C104    1.377   .     S
H103   C102    0.930   1_545 S
C104   C105    1.381   .     S
C105   H106    0.930   .     S
C105   C107    1.371   .     S
C107   H108    0.930   .     S
C109   C110    1.401   .     S
C109   C115    1.386   .     S
C109   C117    1.508   1_545 S
C110   C111    1.393   .     S
C110   C118    1.502   .     S
C111   H112    0.930   .     S
C111   C113    1.383   .     S
C113   C114    1.406   .     S
C113   C119    1.507   .     S
C114   C120    1.495   .     S
C114   C115    1.388   .     S
C115   H116    0.930   .     S
C117   C109    1.508   1_565 S
C118   O65     1.269   1_545 S
Zn121  O123    1.963   .     S
Zn121  O131    2.194   .     S
Zn121  O134    2.191   .     S
Zn121  N140    2.022   .     S
Zn121  O129    1.975   .     S
Zn122  O125    1.944   .     S
Zn122  O137    2.029   1_556 S
Zn122  O127    1.969   .     S
O123   C177    1.271   .     S
O124   C177    1.237   .     S
O125   C178    1.269   .     S
O126   C178    1.236   .     S
O127   C179    1.274   .     S
O128   C179    1.231   .     S
O129   C180    1.274   1_565 S
O130   C180    1.238   .     S
O131   H132    0.864   .     S
O131   H133    0.865   .     S
O134   H135    0.911   1_455 S
O134   H136    0.903   .     S
H135   O134    0.911   1_655 S
O137   Zn122   2.029   1_554 S
O137   H138    0.871   .     S
O137   H139    0.760   .     S
N140   C142    1.344   1_455 S
N140   C149    1.349   1_455 S
N141   C160    1.343   .     S
N141   C167    1.334   .     S
C142   N140    1.344   1_655 S
C142   H143    0.930   1_655 S
C142   C144    1.375   .     S
H143   C142    0.930   1_455 S
C144   H145    0.930   .     S
C144   C146    1.382   .     S
C146   C147    1.384   .     S
C146   C151    1.505   .     S
C147   H148    0.930   .     S
C147   C149    1.369   .     S
C149   N140    1.349   1_655 S
C149   H150    0.930   1_655 S
H150   C149    0.930   1_455 S
C151   H152    0.970   .     S
C151   H153    0.970   .     S
C151   C154    1.518   .     S
C154   H155    0.970   .     S
C154   H156    0.969   .     S
C154   C157    1.523   .     S
C157   H158    0.971   .     S
C157   H159    0.970   .     S
C157   C164    1.506   .     S
C160   H161    0.930   .     S
C160   C162    1.375   .     S
C162   H163    0.930   .     S
C162   C164    1.377   .     S
C164   C165    1.381   .     S
C165   H166    0.930   .     S
C165   C167    1.371   .     S
C167   H168    0.930   .     S
C169   C170    1.401   .     S
C169   C175    1.386   .     S
C169   C177    1.508   .     S
C170   C171    1.393   .     S
C170   C178    1.502   .     S
C171   H172    0.930   .     S
C171   C173    1.383   .     S
C173   C174    1.406   .     S
C173   C179    1.507   1_545 S
C174   C180    1.495   .     S
C174   C175    1.388   .     S
C175   H176    0.930   .     S
C179   C173    1.507   1_565 S
C180   O129    1.274   1_545 S
Zn181  O183    1.963   .     S
Zn181  O191    2.194   .     S
Zn181  O194    2.191   .     S
Zn181  N200    2.022   .     S
Zn181  O189    1.975   .     S
Zn182  O185    1.944   .     S
Zn182  O197    2.029   .     S
Zn182  O187    1.969   .     S
O183   C237    1.271   .     S
O184   C237    1.237   .     S
O185   C238    1.269   1_545 S
O186   C238    1.236   .     S
O187   C239    1.274   .     S
O188   C239    1.231   .     S
O189   C240    1.274   .     S
O190   C240    1.238   .     S
O191   H192    0.864   .     S
O191   H193    0.865   .     S
O194   H195    0.911   1_655 S
O194   H196    0.903   .     S
H195   O194    0.911   1_455 S
O197   H198    0.871   .     S
O197   H199    0.760   .     S
N200   C202    1.344   1_655 S
N200   C209    1.349   1_655 S
N201   C220    1.343   .     S
N201   C227    1.334   .     S
C202   N200    1.344   1_455 S
C202   H203    0.930   1_455 S
C202   C204    1.375   .     S
H203   C202    0.930   1_655 S
C204   H205    0.930   1_545 S
C204   C206    1.382   1_556 S
H205   C204    0.930   1_565 S
C206   C204    1.382   1_554 S
C206   C207    1.384   .     S
C206   C211    1.505   .     S
C207   H208    0.930   .     S
C207   C209    1.369   1_554 S
C209   N200    1.349   1_455 S
C209   H210    0.930   1_455 S
C209   C207    1.369   1_556 S
H210   C209    0.930   1_655 S
C211   H212    0.970   .     S
C211   H213    0.970   .     S
C211   C214    1.518   .     S
C214   H215    0.970   .     S
C214   H216    0.969   .     S
C214   C217    1.523   .     S
C217   H218    0.971   .     S
C217   H219    0.970   .     S
C217   C224    1.506   .     S
C220   H221    0.930   .     S
C220   C222    1.375   .     S
C222   H223    0.930   1_545 S
C222   C224    1.377   .     S
H223   C222    0.930   1_565 S
C224   C225    1.381   .     S
C225   H226    0.930   .     S
C225   C227    1.371   .     S
C227   H228    0.930   .     S
C229   C230    1.401   .     S
C229   C235    1.386   .     S
C229   C237    1.508   1_565 S
C230   C231    1.393   .     S
C230   C238    1.502   .     S
C231   H232    0.930   .     S
C231   C233    1.383   .     S
C233   C234    1.406   .     S
C233   C239    1.507   .     S
C234   C240    1.495   .     S
C234   C235    1.388   .     S
C235   H236    0.930   .     S
C237   C229    1.508   1_545 S
C238   O185    1.269   1_565 S
