data_WAVWAV_FSR
_audit_creation_date              2024-06-11
_audit_creation_method            'Materials Studio'
_symmetry_space_group_name_H-M    'P1'
_symmetry_Int_Tables_number       1
_symmetry_cell_setting            triclinic
loop_
_symmetry_equiv_pos_as_xyz
  x,y,z
_cell_length_a                    14.1662
_cell_length_b                    14.1662
_cell_length_c                    14.1662
_cell_angle_alpha                 90.0000
_cell_angle_beta                  90.0000
_cell_angle_gamma                 90.0000
loop_
_atom_site_label
_atom_site_type_symbol
_atom_site_fract_x
_atom_site_fract_y
_atom_site_fract_z
_atom_site_U_iso_or_equiv
_atom_site_adp_type
_atom_site_occupancy
Mn1    Mn    0.58503   0.16138   0.77096   0.00000  Uiso   1.00
O2     O     0.67938   0.07286   0.69256   0.00000  Uiso   1.00
O3     O     0.79467   0.82716   0.37160   0.00000  Uiso   1.00
O4     O     0.48587   0.77353   0.65662   0.00000  Uiso   1.00
O5     O     0.55960   0.70333   0.53613   0.00000  Uiso   1.00
N6     N     0.67600   0.84561   0.51396   0.00000  Uiso   1.00
C7     C     0.74270   0.91130   0.50690   0.00000  Uiso   1.00
C8     C     0.54670   0.77170   0.59350   0.00000  Uiso   1.00
O9     O     0.88890   0.93870   0.42870   0.00000  Uiso   1.00
C10    C     0.61230   0.85400   0.58410   0.00000  Uiso   1.00
C11    C     0.68010   0.00110   0.63650   0.00000  Uiso   1.00
C12    C     0.61120   0.92950   0.64560   0.00000  Uiso   1.00
H13    H     0.56560   0.93330   0.69260   0.00000  Uiso   1.00
C14    C     0.74820   0.98850   0.56450   0.00000  Uiso   1.00
H15    H     0.79630   0.03250   0.55650   0.00000  Uiso   1.00
C16    C     0.81440   0.89150   0.43070   0.00000  Uiso   1.00
Mn17   Mn    0.91497   0.83862   0.27096   0.00000  Uiso   1.00
O18    O     0.82062   0.92714   0.19256   0.00000  Uiso   1.00
O19    O     0.70533   0.17284   0.87160   0.00000  Uiso   1.00
O20    O     0.01413   0.22647   0.15662   0.00000  Uiso   1.00
O21    O     0.94040   0.29667   0.03613   0.00000  Uiso   1.00
N22    N     0.82400   0.15439   0.01396   0.00000  Uiso   1.00
C23    C     0.75730   0.08870   0.00690   0.00000  Uiso   1.00
C24    C     0.95330   0.22830   0.09350   0.00000  Uiso   1.00
O25    O     0.61110   0.06130   0.92870   0.00000  Uiso   1.00
C26    C     0.88770   0.14600   0.08410   0.00000  Uiso   1.00
C27    C     0.81990   0.99890   0.13650   0.00000  Uiso   1.00
C28    C     0.88880   0.07050   0.14560   0.00000  Uiso   1.00
H29    H     0.93440   0.06670   0.19260   0.00000  Uiso   1.00
C30    C     0.75180   0.01150   0.06450   0.00000  Uiso   1.00
H31    H     0.70370   0.96750   0.05650   0.00000  Uiso   1.00
C32    C     0.68560   0.10850   0.93070   0.00000  Uiso   1.00
Mn33   Mn    0.41497   0.66138   0.72904   0.00000  Uiso   1.00
O34    O     0.32062   0.57286   0.80744   0.00000  Uiso   1.00
O35    O     0.20533   0.32716   0.12840   0.00000  Uiso   1.00
O36    O     0.51413   0.27353   0.84338   0.00000  Uiso   1.00
O37    O     0.44040   0.20333   0.96387   0.00000  Uiso   1.00
N38    N     0.32400   0.34561   0.98604   0.00000  Uiso   1.00
C39    C     0.25730   0.41130   0.99310   0.00000  Uiso   1.00
C40    C     0.45330   0.27170   0.90650   0.00000  Uiso   1.00
O41    O     0.11110   0.43870   0.07130   0.00000  Uiso   1.00
C42    C     0.38770   0.35400   0.91590   0.00000  Uiso   1.00
C43    C     0.31990   0.50110   0.86350   0.00000  Uiso   1.00
C44    C     0.38880   0.42950   0.85440   0.00000  Uiso   1.00
H45    H     0.43440   0.43330   0.80740   0.00000  Uiso   1.00
C46    C     0.25180   0.48850   0.93550   0.00000  Uiso   1.00
H47    H     0.20370   0.53250   0.94350   0.00000  Uiso   1.00
C48    C     0.18560   0.39150   0.06930   0.00000  Uiso   1.00
Mn49   Mn    0.08503   0.33862   0.22904   0.00000  Uiso   1.00
O50    O     0.17938   0.42714   0.30744   0.00000  Uiso   1.00
O51    O     0.29467   0.67284   0.62840   0.00000  Uiso   1.00
O52    O     0.98587   0.72647   0.34338   0.00000  Uiso   1.00
O53    O     0.05960   0.79667   0.46387   0.00000  Uiso   1.00
N54    N     0.17600   0.65439   0.48604   0.00000  Uiso   1.00
C55    C     0.24270   0.58870   0.49310   0.00000  Uiso   1.00
C56    C     0.04670   0.72830   0.40650   0.00000  Uiso   1.00
O57    O     0.38890   0.56130   0.57130   0.00000  Uiso   1.00
C58    C     0.11230   0.64600   0.41590   0.00000  Uiso   1.00
C59    C     0.18010   0.49890   0.36350   0.00000  Uiso   1.00
C60    C     0.11120   0.57050   0.35440   0.00000  Uiso   1.00
H61    H     0.06560   0.56670   0.30740   0.00000  Uiso   1.00
C62    C     0.24820   0.51150   0.43550   0.00000  Uiso   1.00
H63    H     0.29630   0.46750   0.44350   0.00000  Uiso   1.00
C64    C     0.31440   0.60850   0.56930   0.00000  Uiso   1.00
Mn65   Mn    0.77096   0.58503   0.16138   0.00000  Uiso   1.00
O66    O     0.69256   0.67938   0.07286   0.00000  Uiso   1.00
O67    O     0.37160   0.79467   0.82716   0.00000  Uiso   1.00
O68    O     0.65662   0.48587   0.77353   0.00000  Uiso   1.00
O69    O     0.53613   0.55960   0.70333   0.00000  Uiso   1.00
N70    N     0.51396   0.67600   0.84561   0.00000  Uiso   1.00
C71    C     0.50690   0.74270   0.91130   0.00000  Uiso   1.00
C72    C     0.59350   0.54670   0.77170   0.00000  Uiso   1.00
O73    O     0.42870   0.88890   0.93870   0.00000  Uiso   1.00
C74    C     0.58410   0.61230   0.85400   0.00000  Uiso   1.00
C75    C     0.63650   0.68010   0.00110   0.00000  Uiso   1.00
C76    C     0.64560   0.61120   0.92950   0.00000  Uiso   1.00
H77    H     0.69260   0.56560   0.93330   0.00000  Uiso   1.00
C78    C     0.56450   0.74820   0.98850   0.00000  Uiso   1.00
H79    H     0.55650   0.79630   0.03250   0.00000  Uiso   1.00
C80    C     0.43070   0.81440   0.89150   0.00000  Uiso   1.00
Mn81   Mn    0.27096   0.91497   0.83862   0.00000  Uiso   1.00
O82    O     0.19256   0.82062   0.92714   0.00000  Uiso   1.00
O83    O     0.87160   0.70533   0.17284   0.00000  Uiso   1.00
O84    O     0.15662   0.01413   0.22647   0.00000  Uiso   1.00
O85    O     0.03613   0.94040   0.29667   0.00000  Uiso   1.00
N86    N     0.01396   0.82400   0.15439   0.00000  Uiso   1.00
C87    C     0.00690   0.75730   0.08870   0.00000  Uiso   1.00
C88    C     0.09350   0.95330   0.22830   0.00000  Uiso   1.00
O89    O     0.92870   0.61110   0.06130   0.00000  Uiso   1.00
C90    C     0.08410   0.88770   0.14600   0.00000  Uiso   1.00
C91    C     0.13650   0.81990   0.99890   0.00000  Uiso   1.00
C92    C     0.14560   0.88880   0.07050   0.00000  Uiso   1.00
H93    H     0.19260   0.93440   0.06670   0.00000  Uiso   1.00
C94    C     0.06450   0.75180   0.01150   0.00000  Uiso   1.00
H95    H     0.05650   0.70370   0.96750   0.00000  Uiso   1.00
C96    C     0.93070   0.68560   0.10850   0.00000  Uiso   1.00
Mn97   Mn    0.72904   0.41497   0.66138   0.00000  Uiso   1.00
O98    O     0.80744   0.32062   0.57286   0.00000  Uiso   1.00
O99    O     0.12840   0.20533   0.32716   0.00000  Uiso   1.00
O100   O     0.84338   0.51413   0.27353   0.00000  Uiso   1.00
O101   O     0.96387   0.44040   0.20333   0.00000  Uiso   1.00
N102   N     0.98604   0.32400   0.34561   0.00000  Uiso   1.00
C103   C     0.99310   0.25730   0.41130   0.00000  Uiso   1.00
C104   C     0.90650   0.45330   0.27170   0.00000  Uiso   1.00
O105   O     0.07130   0.11110   0.43870   0.00000  Uiso   1.00
C106   C     0.91590   0.38770   0.35400   0.00000  Uiso   1.00
C107   C     0.86350   0.31990   0.50110   0.00000  Uiso   1.00
C108   C     0.85440   0.38880   0.42950   0.00000  Uiso   1.00
H109   H     0.80740   0.43440   0.43330   0.00000  Uiso   1.00
C110   C     0.93550   0.25180   0.48850   0.00000  Uiso   1.00
H111   H     0.94350   0.20370   0.53250   0.00000  Uiso   1.00
C112   C     0.06930   0.18560   0.39150   0.00000  Uiso   1.00
Mn113  Mn    0.22904   0.08503   0.33862   0.00000  Uiso   1.00
O114   O     0.30744   0.17938   0.42714   0.00000  Uiso   1.00
O115   O     0.62840   0.29467   0.67284   0.00000  Uiso   1.00
O116   O     0.34338   0.98587   0.72647   0.00000  Uiso   1.00
O117   O     0.46387   0.05960   0.79667   0.00000  Uiso   1.00
N118   N     0.48604   0.17600   0.65439   0.00000  Uiso   1.00
C119   C     0.49310   0.24270   0.58870   0.00000  Uiso   1.00
C120   C     0.40650   0.04670   0.72830   0.00000  Uiso   1.00
O121   O     0.57130   0.38890   0.56130   0.00000  Uiso   1.00
C122   C     0.41590   0.11230   0.64600   0.00000  Uiso   1.00
C123   C     0.36350   0.18010   0.49890   0.00000  Uiso   1.00
C124   C     0.35440   0.11120   0.57050   0.00000  Uiso   1.00
H125   H     0.30740   0.06560   0.56670   0.00000  Uiso   1.00
C126   C     0.43550   0.24820   0.51150   0.00000  Uiso   1.00
H127   H     0.44350   0.29630   0.46750   0.00000  Uiso   1.00
C128   C     0.56930   0.31440   0.60850   0.00000  Uiso   1.00
Mn129  Mn    0.16138   0.77096   0.58503   0.00000  Uiso   1.00
O130   O     0.07286   0.69256   0.67938   0.00000  Uiso   1.00
O131   O     0.82716   0.37160   0.79467   0.00000  Uiso   1.00
O132   O     0.77353   0.65662   0.48587   0.00000  Uiso   1.00
O133   O     0.70333   0.53613   0.55960   0.00000  Uiso   1.00
N134   N     0.84561   0.51396   0.67600   0.00000  Uiso   1.00
C135   C     0.91130   0.50690   0.74270   0.00000  Uiso   1.00
C136   C     0.77170   0.59350   0.54670   0.00000  Uiso   1.00
O137   O     0.93870   0.42870   0.88890   0.00000  Uiso   1.00
C138   C     0.85400   0.58410   0.61230   0.00000  Uiso   1.00
C139   C     0.00110   0.63650   0.68010   0.00000  Uiso   1.00
C140   C     0.92950   0.64560   0.61120   0.00000  Uiso   1.00
H141   H     0.93330   0.69260   0.56560   0.00000  Uiso   1.00
C142   C     0.98850   0.56450   0.74820   0.00000  Uiso   1.00
H143   H     0.03250   0.55650   0.79630   0.00000  Uiso   1.00
C144   C     0.89150   0.43070   0.81440   0.00000  Uiso   1.00
Mn145  Mn    0.83862   0.27096   0.91497   0.00000  Uiso   1.00
O146   O     0.92714   0.19256   0.82062   0.00000  Uiso   1.00
O147   O     0.17284   0.87160   0.70533   0.00000  Uiso   1.00
O148   O     0.22647   0.15662   0.01413   0.00000  Uiso   1.00
O149   O     0.29667   0.03613   0.94040   0.00000  Uiso   1.00
N150   N     0.15439   0.01396   0.82400   0.00000  Uiso   1.00
C151   C     0.08870   0.00690   0.75730   0.00000  Uiso   1.00
C152   C     0.22830   0.09350   0.95330   0.00000  Uiso   1.00
O153   O     0.06130   0.92870   0.61110   0.00000  Uiso   1.00
C154   C     0.14600   0.08410   0.88770   0.00000  Uiso   1.00
C155   C     0.99890   0.13650   0.81990   0.00000  Uiso   1.00
C156   C     0.07050   0.14560   0.88880   0.00000  Uiso   1.00
H157   H     0.06670   0.19260   0.93440   0.00000  Uiso   1.00
C158   C     0.01150   0.06450   0.75180   0.00000  Uiso   1.00
H159   H     0.96750   0.05650   0.70370   0.00000  Uiso   1.00
C160   C     0.10850   0.93070   0.68560   0.00000  Uiso   1.00
Mn161  Mn    0.66138   0.72904   0.41497   0.00000  Uiso   1.00
O162   O     0.57286   0.80744   0.32062   0.00000  Uiso   1.00
O163   O     0.32716   0.12840   0.20533   0.00000  Uiso   1.00
O164   O     0.27353   0.84338   0.51413   0.00000  Uiso   1.00
O165   O     0.20333   0.96387   0.44040   0.00000  Uiso   1.00
N166   N     0.34561   0.98604   0.32400   0.00000  Uiso   1.00
C167   C     0.41130   0.99310   0.25730   0.00000  Uiso   1.00
C168   C     0.27170   0.90650   0.45330   0.00000  Uiso   1.00
O169   O     0.43870   0.07130   0.11110   0.00000  Uiso   1.00
C170   C     0.35400   0.91590   0.38770   0.00000  Uiso   1.00
C171   C     0.50110   0.86350   0.31990   0.00000  Uiso   1.00
C172   C     0.42950   0.85440   0.38880   0.00000  Uiso   1.00
H173   H     0.43330   0.80740   0.43440   0.00000  Uiso   1.00
C174   C     0.48850   0.93550   0.25180   0.00000  Uiso   1.00
H175   H     0.53250   0.94350   0.20370   0.00000  Uiso   1.00
C176   C     0.39150   0.06930   0.18560   0.00000  Uiso   1.00
Mn177  Mn    0.33862   0.22904   0.08503   0.00000  Uiso   1.00
O178   O     0.42714   0.30744   0.17938   0.00000  Uiso   1.00
O179   O     0.67284   0.62840   0.29467   0.00000  Uiso   1.00
O180   O     0.72647   0.34338   0.98587   0.00000  Uiso   1.00
O181   O     0.79667   0.46387   0.05960   0.00000  Uiso   1.00
N182   N     0.65439   0.48604   0.17600   0.00000  Uiso   1.00
C183   C     0.58870   0.49310   0.24270   0.00000  Uiso   1.00
C184   C     0.72830   0.40650   0.04670   0.00000  Uiso   1.00
O185   O     0.56130   0.57130   0.38890   0.00000  Uiso   1.00
C186   C     0.64600   0.41590   0.11230   0.00000  Uiso   1.00
C187   C     0.49890   0.36350   0.18010   0.00000  Uiso   1.00
C188   C     0.57050   0.35440   0.11120   0.00000  Uiso   1.00
H189   H     0.56670   0.30740   0.06560   0.00000  Uiso   1.00
C190   C     0.51150   0.43550   0.24820   0.00000  Uiso   1.00
H191   H     0.46750   0.44350   0.29630   0.00000  Uiso   1.00
C192   C     0.60850   0.56930   0.31440   0.00000  Uiso   1.00
Mn193  Mn    0.54669   0.54669   0.54669   0.00000  Uiso   1.00
Mn194  Mn    0.95331   0.45331   0.04669   0.00000  Uiso   1.00
Mn195  Mn    0.45331   0.04669   0.95331   0.00000  Uiso   1.00
Mn196  Mn    0.04669   0.95331   0.45331   0.00000  Uiso   1.00
loop_
_geom_bond_atom_site_label_1
_geom_bond_atom_site_label_2
_geom_bond_distance
_geom_bond_site_symmetry_2
_ccdc_geom_bond_type
Mn1    O2      2.143   .     S
Mn1    O19     2.228   .     S
Mn1    O115    2.424   .     S
Mn1    O36     2.141   .     S
Mn1    O117    2.271   .     S
Mn1    N118    2.176   .     S
O2     C11     1.290   .     S
O3     C16     1.269   .     S
O3     Mn17    2.228   .     S
O3     Mn161   2.424   .     S
O4     C8      1.242   .     S
O4     Mn33    2.141   .     S
O5     Mn193   2.232   .     S
O5     C8      1.277   .     S
O5     Mn161   2.271   .     S
N6     C7      1.330   .     S
N6     C10     1.347   .     S
N6     Mn161   2.176   .     S
C7     C14     1.367   .     S
C7     C16     1.509   .     S
C8     C10     1.497   .     S
O9     C16     1.250   .     S
O9     Mn196   2.272   1_655 S
C10    C12     1.380   .     S
C11    C12     1.414   1_545 S
C11    C14     1.415   1_545 S
C12    C11     1.414   1_565 S
C12    H13     0.929   .     S
C14    C11     1.415   1_565 S
C14    H15     0.930   1_565 S
H15    C14     0.930   1_545 S
Mn17   O18     2.143   .     S
Mn17   O83     2.424   .     S
Mn17   O52     2.141   .     S
Mn17   O85     2.271   1_655 S
Mn17   N86     2.176   1_655 S
O18    C27     1.290   .     S
O19    C32     1.269   .     S
O19    Mn145   2.424   .     S
O20    C24     1.242   1_455 S
O20    Mn49    2.141   .     S
O21    Mn194   2.232   .     S
O21    C24     1.277   .     S
O21    Mn145   2.271   1_554 S
N22    C23     1.330   .     S
N22    C26     1.347   .     S
N22    Mn145   2.176   1_554 S
C23    C30     1.367   .     S
C23    C32     1.509   1_554 S
C24    O20     1.242   1_655 S
C24    C26     1.497   .     S
O25    C32     1.250   .     S
O25    Mn195   2.272   .     S
C26    C28     1.380   .     S
C27    C28     1.414   1_565 S
C27    C30     1.415   1_565 S
C28    C27     1.414   1_545 S
C28    H29     0.929   .     S
C30    C27     1.415   1_545 S
C30    H31     0.930   1_545 S
H31    C30     0.930   1_565 S
C32    C23     1.509   1_556 S
Mn33   O34     2.143   .     S
Mn33   O51     2.228   .     S
Mn33   O67     2.424   .     S
Mn33   O69     2.271   .     S
Mn33   N70     2.176   .     S
O34    C43     1.290   .     S
O35    C48     1.269   .     S
O35    Mn49    2.228   .     S
O35    Mn177   2.424   .     S
O36    C40     1.242   .     S
O37    Mn195   2.232   .     S
O37    C40     1.277   .     S
O37    Mn177   2.271   1_556 S
N38    C39     1.330   .     S
N38    C42     1.347   .     S
N38    Mn177   2.176   1_556 S
C39    C46     1.367   .     S
C39    C48     1.509   1_556 S
C40    C42     1.497   .     S
O41    C48     1.250   .     S
O41    Mn194   2.272   1_455 S
C42    C44     1.380   .     S
C43    C44     1.414   .     S
C43    C46     1.415   .     S
C44    H45     0.929   .     S
C46    H47     0.930   .     S
C48    C39     1.509   1_554 S
Mn49   O50     2.143   .     S
Mn49   O99     2.424   .     S
Mn49   O101    2.271   1_455 S
Mn49   N102    2.176   1_455 S
O50    C59     1.290   .     S
O51    C64     1.269   .     S
O51    Mn129   2.424   .     S
O52    C56     1.242   1_655 S
O53    Mn196   2.232   .     S
O53    C56     1.277   .     S
O53    Mn129   2.271   .     S
N54    C55     1.330   .     S
N54    C58     1.347   .     S
N54    Mn129   2.176   .     S
C55    C62     1.367   .     S
C55    C64     1.509   .     S
C56    O52     1.242   1_455 S
C56    C58     1.497   .     S
O57    C64     1.250   .     S
O57    Mn193   2.272   .     S
C58    C60     1.380   .     S
C59    C60     1.414   .     S
C59    C62     1.415   .     S
C60    H61     0.929   .     S
C62    H63     0.930   .     S
Mn65   O66     2.143   .     S
Mn65   O83     2.228   .     S
Mn65   O179    2.424   .     S
Mn65   O100    2.141   .     S
Mn65   O181    2.271   .     S
Mn65   N182    2.176   .     S
O66    C75     1.290   .     S
O67    C80     1.269   .     S
O67    Mn81    2.228   .     S
O68    C72     1.242   .     S
O68    Mn97    2.141   .     S
O69    Mn193   2.232   .     S
O69    C72     1.277   .     S
N70    C71     1.330   .     S
N70    C74     1.347   .     S
C71    C78     1.367   .     S
C71    C80     1.509   .     S
C72    C74     1.497   .     S
O73    C80     1.250   .     S
O73    Mn195   2.272   1_565 S
C74    C76     1.380   .     S
C75    C76     1.414   1_554 S
C75    C78     1.415   1_554 S
C76    C75     1.414   1_556 S
C76    H77     0.929   .     S
C78    C75     1.415   1_556 S
C78    H79     0.930   1_556 S
H79    C78     0.930   1_554 S
Mn81   O82     2.143   .     S
Mn81   O147    2.424   .     S
Mn81   O116    2.141   .     S
Mn81   O149    2.271   1_565 S
Mn81   N150    2.176   1_565 S
O82    C91     1.290   .     S
O83    C96     1.269   .     S
O84    C88     1.242   1_545 S
O84    Mn113   2.141   .     S
O85    Mn196   2.232   .     S
O85    C88     1.277   .     S
O85    Mn17    2.271   1_455 S
N86    C87     1.330   .     S
N86    C90     1.347   .     S
N86    Mn17    2.176   1_455 S
C87    C94     1.367   .     S
C87    C96     1.509   1_455 S
C88    O84     1.242   1_565 S
C88    C90     1.497   .     S
O89    C96     1.250   .     S
O89    Mn194   2.272   .     S
C90    C92     1.380   .     S
C91    C92     1.414   1_556 S
C91    C94     1.415   1_556 S
C92    C91     1.414   1_554 S
C92    H93     0.929   .     S
C94    C91     1.415   1_554 S
C94    H95     0.930   1_554 S
H95    C94     0.930   1_556 S
C96    C87     1.509   1_655 S
Mn97   O98     2.143   .     S
Mn97   O115    2.228   .     S
Mn97   O131    2.424   .     S
Mn97   O133    2.271   .     S
Mn97   N134    2.176   .     S
O98    C107    1.290   .     S
O99    C112    1.269   .     S
O99    Mn113   2.228   .     S
O100   C104    1.242   .     S
O101   Mn194   2.232   .     S
O101   C104    1.277   .     S
O101   Mn49    2.271   1_655 S
N102   C103    1.330   .     S
N102   C106    1.347   .     S
N102   Mn49    2.176   1_655 S
C103   C110    1.367   .     S
C103   C112    1.509   1_655 S
C104   C106    1.497   .     S
O105   C112    1.250   .     S
O105   Mn196   2.272   1_545 S
C106   C108    1.380   .     S
C107   C108    1.414   .     S
C107   C110    1.415   .     S
C108   H109    0.929   .     S
C110   H111    0.930   .     S
C112   C103    1.509   1_455 S
Mn113  O114    2.143   .     S
Mn113  O163    2.424   .     S
Mn113  O165    2.271   1_545 S
Mn113  N166    2.176   1_545 S
O114   C123    1.290   .     S
O115   C128    1.269   .     S
O116   C120    1.242   1_565 S
O117   Mn195   2.232   .     S
O117   C120    1.277   .     S
N118   C119    1.330   .     S
N118   C122    1.347   .     S
C119   C126    1.367   .     S
C119   C128    1.509   .     S
C120   O116    1.242   1_545 S
C120   C122    1.497   .     S
O121   C128    1.250   .     S
O121   Mn193   2.272   .     S
C122   C124    1.380   .     S
C123   C124    1.414   .     S
C123   C126    1.415   .     S
C124   H125    0.929   .     S
C126   H127    0.930   .     S
Mn129  O130    2.143   .     S
Mn129  O147    2.228   .     S
Mn129  O164    2.141   .     S
O130   C139    1.290   .     S
O131   C144    1.269   .     S
O131   Mn145   2.228   .     S
O132   C136    1.242   .     S
O132   Mn161   2.141   .     S
O133   Mn193   2.232   .     S
O133   C136    1.277   .     S
N134   C135    1.330   .     S
N134   C138    1.347   .     S
C135   C142    1.367   .     S
C135   C144    1.509   .     S
C136   C138    1.497   .     S
O137   C144    1.250   .     S
O137   Mn194   2.272   1_556 S
C138   C140    1.380   .     S
C139   C140    1.414   1_455 S
C139   C142    1.415   1_455 S
C140   C139    1.414   1_655 S
C140   H141    0.929   .     S
C142   C139    1.415   1_655 S
C142   H143    0.930   1_655 S
H143   C142    0.930   1_455 S
Mn145  O146    2.143   .     S
Mn145  O180    2.141   .     S
Mn145  O21     2.271   1_556 S
Mn145  N22     2.176   1_556 S
O146   C155    1.290   .     S
O147   C160    1.269   .     S
O148   C152    1.242   1_554 S
O148   Mn177   2.141   .     S
O149   Mn195   2.232   .     S
O149   C152    1.277   .     S
O149   Mn81    2.271   1_545 S
N150   C151    1.330   .     S
N150   C154    1.347   .     S
N150   Mn81    2.176   1_545 S
C151   C158    1.367   .     S
C151   C160    1.509   1_545 S
C152   O148    1.242   1_556 S
C152   C154    1.497   .     S
O153   C160    1.250   .     S
O153   Mn196   2.272   .     S
C154   C156    1.380   .     S
C155   C156    1.414   1_655 S
C155   C158    1.415   1_655 S
C156   C155    1.414   1_455 S
C156   H157    0.929   .     S
C158   C155    1.415   1_455 S
C158   H159    0.930   1_455 S
H159   C158    0.930   1_655 S
C160   C151    1.509   1_565 S
Mn161  O162    2.143   .     S
Mn161  O179    2.228   .     S
O162   C171    1.290   .     S
O163   C176    1.269   .     S
O163   Mn177   2.228   .     S
O164   C168    1.242   .     S
O165   Mn196   2.232   .     S
O165   C168    1.277   .     S
O165   Mn113   2.271   1_565 S
N166   C167    1.330   .     S
N166   C170    1.347   .     S
N166   Mn113   2.176   1_565 S
C167   C174    1.367   .     S
C167   C176    1.509   1_565 S
C168   C170    1.497   .     S
O169   C176    1.250   .     S
O169   Mn195   2.272   1_554 S
C170   C172    1.380   .     S
C171   C172    1.414   .     S
C171   C174    1.415   .     S
C172   H173    0.929   .     S
C174   H175    0.930   .     S
C176   C167    1.509   1_545 S
Mn177  O178    2.143   .     S
Mn177  O37     2.271   1_554 S
Mn177  N38     2.176   1_554 S
O178   C187    1.290   .     S
O179   C192    1.269   .     S
O180   C184    1.242   1_556 S
O181   Mn194   2.232   .     S
O181   C184    1.277   .     S
N182   C183    1.330   .     S
N182   C186    1.347   .     S
C183   C190    1.367   .     S
C183   C192    1.509   .     S
C184   O180    1.242   1_554 S
C184   C186    1.497   .     S
O185   C192    1.250   .     S
O185   Mn193   2.272   .     S
C186   C188    1.380   .     S
C187   C188    1.414   .     S
C187   C190    1.415   .     S
C188   H189    0.929   .     S
C190   H191    0.930   .     S
Mn194  O41     2.272   1_655 S
Mn194  O137    2.272   1_554 S
Mn195  O73     2.272   1_545 S
Mn195  O169    2.272   1_556 S
Mn196  O9      2.272   1_455 S
Mn196  O105    2.272   1_565 S
