data_WEHNAA_directopt
_audit_creation_date              2024-06-11
_audit_creation_method            'Materials Studio'
_symmetry_space_group_name_H-M    'P1'
_symmetry_Int_Tables_number       1
_symmetry_cell_setting            triclinic
loop_
_symmetry_equiv_pos_as_xyz
  x,y,z
_cell_length_a                    29.5522
_cell_length_b                    8.6174
_cell_length_c                    9.7030
_cell_angle_alpha                 90.0000
_cell_angle_beta                  95.4401
_cell_angle_gamma                 90.0000
loop_
_atom_site_label
_atom_site_type_symbol
_atom_site_fract_x
_atom_site_fract_y
_atom_site_fract_z
_atom_site_U_iso_or_equiv
_atom_site_adp_type
_atom_site_occupancy
P1     P     0.15971   0.59089   0.08834   0.01500  Uiso   1.00
P2     P     0.21600   0.99838   0.24363   0.01500  Uiso   1.00
O3     O     0.18042   0.73755   0.98743   0.01500  Uiso   1.00
O4     O     0.10773   0.63685   1.10951   0.01500  Uiso   1.00
O5     O     0.18561   0.61301   0.23956   0.01500  Uiso   1.00
O6     O     0.24130   0.03746   0.41125   0.01500  Uiso   1.00
O7     O     0.25190   0.85015   0.19254   0.01500  Uiso   1.00
O8     O     0.17250   0.90781   0.27056   0.01500  Uiso   1.00
C9     C     0.16611   0.38923   0.02896   0.01500  Uiso   1.00
C10    C     0.20057   0.14786   0.10795   0.01500  Uiso   1.00
N11    N     0.17074   0.27629   0.14527   0.01500  Uiso   1.00
C12    C     0.12569   0.22482   0.18275   0.01500  Uiso   1.00
C13    C     0.10003   0.11614   0.07567   0.01500  Uiso   1.00
C14    C     0.05072   0.09734   0.10527   0.01500  Uiso   1.00
C15    C     0.02422   0.01554   0.98393   0.01500  Uiso   1.00
P16    P     0.65976   0.09069   0.08812   0.01500  Uiso   1.00
P17    P     0.71608   0.49830   0.24336   0.01500  Uiso   1.00
O18    O     0.68048   0.23732   0.98721   0.01500  Uiso   1.00
O19    O     0.60779   0.13673   1.10932   0.01500  Uiso   1.00
O20    O     0.68567   0.11274   0.23934   0.01500  Uiso   1.00
O21    O     0.74133   0.53743   0.41104   0.01500  Uiso   1.00
O22    O     0.75205   0.35031   0.19222   0.01500  Uiso   1.00
O23    O     0.67262   0.40750   0.27022   0.01500  Uiso   1.00
C24    C     0.66612   0.88903   0.02874   0.01500  Uiso   1.00
C25    C     0.70060   0.64770   0.10770   0.01500  Uiso   1.00
N26    N     0.67077   0.77613   0.14505   0.01500  Uiso   1.00
C27    C     0.62574   0.72460   0.18260   0.01500  Uiso   1.00
C28    C     0.60008   0.61586   0.07557   0.01500  Uiso   1.00
C29    C     0.55076   0.59713   0.10516   0.01500  Uiso   1.00
C30    C     0.52427   0.51503   0.98398   0.01500  Uiso   1.00
P31    P     0.84026   0.59083   0.41165   0.01500  Uiso   1.00
P32    P     0.78396   0.99832   0.25636   0.01500  Uiso   1.00
O33    O     0.81955   0.73749   0.51256   0.01500  Uiso   1.00
O34    O     0.89224   0.63678   0.39050   0.01500  Uiso   1.00
O35    O     0.81436   0.61296   0.26044   0.01500  Uiso   1.00
O36    O     0.75866   0.03740   0.08874   0.01500  Uiso   1.00
O37    O     0.74806   0.85009   0.30745   0.01500  Uiso   1.00
O38    O     0.82746   0.90775   0.22942   0.01500  Uiso   1.00
C39    C     0.83386   0.38917   0.47103   0.01500  Uiso   1.00
C40    C     0.79940   0.14779   0.39204   0.01500  Uiso   1.00
N41    N     0.82923   0.27624   0.35472   0.01500  Uiso   1.00
C42    C     0.87428   0.22478   0.31723   0.01500  Uiso   1.00
C43    C     0.89993   0.11609   0.42430   0.01500  Uiso   1.00
C44    C     0.94926   0.09752   0.39484   0.01500  Uiso   1.00
C45    C     0.97575   0.01560   0.51614   0.01500  Uiso   1.00
P46    P     0.34020   0.09074   0.41185   0.01500  Uiso   1.00
P47    P     0.28389   0.49835   0.25661   0.01500  Uiso   1.00
O48    O     0.31948   0.23737   0.51276   0.01500  Uiso   1.00
O49    O     0.39217   0.13679   0.39064   0.01500  Uiso   1.00
O50    O     0.31430   0.11279   0.26064   0.01500  Uiso   1.00
O51    O     0.25864   0.53749   0.08894   0.01500  Uiso   1.00
O52    O     0.24791   0.35037   0.30776   0.01500  Uiso   1.00
O53    O     0.32735   0.40754   0.22976   0.01500  Uiso   1.00
C54    C     0.33384   0.88908   0.47123   0.01500  Uiso   1.00
C55    C     0.29937   0.64774   0.39229   0.01500  Uiso   1.00
N56    N     0.32920   0.77618   0.35492   0.01500  Uiso   1.00
C57    C     0.37424   0.72466   0.31737   0.01500  Uiso   1.00
C58    C     0.39990   0.61594   0.42440   0.01500  Uiso   1.00
C59    C     0.44922   0.59723   0.39481   0.01500  Uiso   1.00
C60    C     0.47571   0.51511   0.51598   0.01500  Uiso   1.00
P61    P     0.84026   0.40910   0.91166   0.01500  Uiso   1.00
P62    P     0.78400   0.00164   0.75635   0.01500  Uiso   1.00
O63    O     0.81955   0.26243   0.01256   0.01500  Uiso   1.00
O64    O     0.89224   0.36311  -0.10948   0.01500  Uiso   1.00
O65    O     0.81437   0.38698   0.76044   0.01500  Uiso   1.00
O66    O     0.75867   0.96250   0.58877   0.01500  Uiso   1.00
O67    O     0.74812   0.14997   0.80737   0.01500  Uiso   1.00
O68    O     0.82750   0.09214   0.72933   0.01500  Uiso   1.00
C69    C     0.83387   0.61077   0.97105   0.01500  Uiso   1.00
C70    C     0.79946   0.85225   0.89209   0.01500  Uiso   1.00
N71    N     0.82926   0.72371   0.85475   0.01500  Uiso   1.00
C72    C     0.87432   0.77508   0.81725   0.01500  Uiso   1.00
C73    C     0.90001   0.88367   0.92434   0.01500  Uiso   1.00
C74    C     0.94938   0.90176   0.89510   0.01500  Uiso   1.00
C75    C     0.97588   0.98352   0.01646   0.01500  Uiso   1.00
P76    P     0.34019   0.90930   0.91179   0.01500  Uiso   1.00
P77    P     0.28391   0.50174   0.75660   0.01500  Uiso   1.00
O78    O     0.31949   0.76267   0.01274   0.01500  Uiso   1.00
O79    O     0.39215   0.86322  -0.10950   0.01500  Uiso   1.00
O80    O     0.31426   0.88728   0.76062   0.01500  Uiso   1.00
O81    O     0.25863   0.46252   0.58897   0.01500  Uiso   1.00
O82    O     0.24795   0.64979   0.80769   0.01500  Uiso   1.00
O83    O     0.32737   0.59252   0.72965   0.01500  Uiso   1.00
C84    C     0.33386   0.11097   0.97120   0.01500  Uiso   1.00
C85    C     0.29945   0.35247   0.89235   0.01500  Uiso   1.00
N86    N     0.32921   0.22390   0.85490   0.01500  Uiso   1.00
C87    C     0.37426   0.27522   0.81723   0.01500  Uiso   1.00
C88    C     0.40000   0.38380   0.92424   0.01500  Uiso   1.00
C89    C     0.44942   0.40118   0.89527   0.01500  Uiso   1.00
C90    C     0.47592   0.48323   0.01648   0.01500  Uiso   1.00
P91    P     0.15971   0.40916   0.58833   0.01500  Uiso   1.00
P92    P     0.21597   0.00171   0.74364   0.01500  Uiso   1.00
O93    O     0.18041   0.26251   0.48742   0.01500  Uiso   1.00
O94    O     0.10773   0.36317   0.60949   0.01500  Uiso   1.00
O95    O     0.18560   0.38704   0.73955   0.01500  Uiso   1.00
O96    O     0.24130   0.96257   0.91121   0.01500  Uiso   1.00
O97    O     0.25185   0.15005   0.69262   0.01500  Uiso   1.00
O98    O     0.17247   0.09221   0.77067   0.01500  Uiso   1.00
C99    C     0.16609   0.61084   0.52896   0.01500  Uiso   1.00
C100   C     0.20051   0.85233   0.60790   0.01500  Uiso   1.00
N101   N     0.17071   0.72378   0.64525   0.01500  Uiso   1.00
C102   C     0.12565   0.77513   0.68278   0.01500  Uiso   1.00
C103   C     0.09995   0.88373   0.57571   0.01500  Uiso   1.00
C104   C     0.05059   0.90183   0.60498   0.01500  Uiso   1.00
C105   C     0.02408   0.98359   0.48362   0.01500  Uiso   1.00
P106   P     0.65977   0.90922   0.58819   0.01500  Uiso   1.00
P107   P     0.71606   0.50166   0.74337   0.01500  Uiso   1.00
O108   O     0.68048   0.76259   0.48725   0.01500  Uiso   1.00
O109   O     0.60782   0.86313   0.60949   0.01500  Uiso   1.00
O110   O     0.68571   0.88720   0.73936   0.01500  Uiso   1.00
O111   O     0.74133   0.46245   0.91100   0.01500  Uiso   1.00
O112   O     0.75202   0.64971   0.69228   0.01500  Uiso   1.00
O113   O     0.67260   0.59244   0.77032   0.01500  Uiso   1.00
C114   C     0.66611   0.11089   0.52877   0.01500  Uiso   1.00
C115   C     0.70052   0.35238   0.60763   0.01500  Uiso   1.00
N116   N     0.67075   0.22382   0.64506   0.01500  Uiso   1.00
C117   C     0.62570   0.27517   0.68270   0.01500  Uiso   1.00
C118   C     0.59997   0.38374   0.57568   0.01500  Uiso   1.00
C119   C     0.55056   0.40122   0.60467   0.01500  Uiso   1.00
C120   C     0.52406   0.48325   0.48346   0.01500  Uiso   1.00
Mg121  Mg    0.24995   0.75005   0.00009   0.01500  Uiso   1.00
Mg122  Mg    0.75002   0.74998   0.49990   0.01500  Uiso   1.00
Mg123  Mg    0.75002   0.24993  -0.00014   0.01500  Uiso   1.00
Mg124  Mg    0.24995   0.24999   0.50012   0.01500  Uiso   1.00
H125   H     0.19742   0.39190  -0.02342   0.00000  Uiso   1.00
H126   H     0.13785   0.36383  -0.05062   0.00000  Uiso   1.00
H127   H     0.23340   0.19494   0.08261   0.00000  Uiso   1.00
H128   H     0.18408   0.08664   0.01761   0.00000  Uiso   1.00
H129   H     0.10461   0.32894   0.19902   0.00000  Uiso   1.00
H130   H     0.12964   0.16475   0.28413   0.00000  Uiso   1.00
H131   H     0.11595  -0.00057   0.07923   0.00000  Uiso   1.00
H132   H     0.10076   0.15982  -0.03126   0.00000  Uiso   1.00
H133   H     0.03503   0.21272   0.12040   0.00000  Uiso   1.00
H134   H     0.04960   0.02811   0.20119   0.00000  Uiso   1.00
H135   H     0.04121  -0.09583   0.96179   0.00000  Uiso   1.00
H136   H     0.02330   0.09180   0.89127   0.00000  Uiso   1.00
H137   H     0.63786   0.86362  -0.05081   0.00000  Uiso   1.00
H138   H     0.69743   0.89171  -0.02366   0.00000  Uiso   1.00
H139   H     0.68410   0.58647   0.01738   0.00000  Uiso   1.00
H140   H     0.73343   0.69482   0.08229   0.00000  Uiso   1.00
H141   H     0.60465   0.82870   0.19889   0.00000  Uiso   1.00
H142   H     0.62971   0.66453   0.28398   0.00000  Uiso   1.00
H143   H     0.61598   0.49915   0.07921   0.00000  Uiso   1.00
H144   H     0.60081   0.65946  -0.03139   0.00000  Uiso   1.00
H145   H     0.53506   0.71256   0.12004   0.00000  Uiso   1.00
H146   H     0.54963   0.52815   0.20121   0.00000  Uiso   1.00
H147   H     0.54125   0.40356   0.96211   0.00000  Uiso   1.00
H148   H     0.52338   0.59103   0.89115   0.00000  Uiso   1.00
H149   H     0.80254   0.39184   0.52341   0.00000  Uiso   1.00
H150   H     0.86211   0.36377   0.55060   0.00000  Uiso   1.00
H151   H     0.76657   0.19486   0.41740   0.00000  Uiso   1.00
H152   H     0.81590   0.08656   0.48237   0.00000  Uiso   1.00
H153   H     0.89535   0.32891   0.30096   0.00000  Uiso   1.00
H154   H     0.87033   0.16471   0.21585   0.00000  Uiso   1.00
H155   H     0.88405  -0.00066   0.42060   0.00000  Uiso   1.00
H156   H     0.89916   0.15964   0.53126   0.00000  Uiso   1.00
H157   H     0.96493   0.21299   0.37992   0.00000  Uiso   1.00
H158   H     0.95044   0.02848   0.29883   0.00000  Uiso   1.00
H159   H     0.95875  -0.09578   0.53819   0.00000  Uiso   1.00
H160   H     0.97666   0.09178   0.60886   0.00000  Uiso   1.00
H161   H     0.36211   0.86368   0.55079   0.00000  Uiso   1.00
H162   H     0.30254   0.89175   0.52364   0.00000  Uiso   1.00
H163   H     0.31588   0.58650   0.48259   0.00000  Uiso   1.00
H164   H     0.26655   0.69485   0.41771   0.00000  Uiso   1.00
H165   H     0.39532   0.82877   0.30107   0.00000  Uiso   1.00
H166   H     0.37026   0.66459   0.21599   0.00000  Uiso   1.00
H167   H     0.38400   0.49922   0.42076   0.00000  Uiso   1.00
H168   H     0.39917   0.65953   0.53136   0.00000  Uiso   1.00
H169   H     0.46491   0.71266   0.37993   0.00000  Uiso   1.00
H170   H     0.45035   0.52826   0.29874   0.00000  Uiso   1.00
H171   H     0.45872   0.40366   0.53787   0.00000  Uiso   1.00
H172   H     0.47661   0.59112   0.60881   0.00000  Uiso   1.00
H173   H     0.86213   0.63613   1.05065   0.00000  Uiso   1.00
H174   H     0.80255   0.60812   1.02339   0.00000  Uiso   1.00
H175   H     0.81598   0.91351   0.98237   0.00000  Uiso   1.00
H176   H     0.76662   0.80522   0.91751   0.00000  Uiso   1.00
H177   H     0.87038   0.83519   0.71588   0.00000  Uiso   1.00
H178   H     0.89536   0.67089   0.80092   0.00000  Uiso   1.00
H179   H     0.89915   0.84031   1.03132   0.00000  Uiso   1.00
H180   H     0.88420   1.00055   0.92044   0.00000  Uiso   1.00
H181   H     0.95065   0.97070   0.79908   0.00000  Uiso   1.00
H182   H     0.96498   0.78615   0.88029   0.00000  Uiso   1.00
H183   H     0.95890   1.09490   0.03860   0.00000  Uiso   1.00
H184   H     0.97679   0.90725   0.10913   0.00000  Uiso   1.00
H185   H     0.30255   0.10833   1.02362   0.00000  Uiso   1.00
H186   H     0.36214   0.13631   1.05073   0.00000  Uiso   1.00
H187   H     0.26663   0.30548   0.91796   0.00000  Uiso   1.00
H188   H     0.31602   0.41381   0.98254   0.00000  Uiso   1.00
H189   H     0.37029   0.33536   0.71589   0.00000  Uiso   1.00
H190   H     0.39528   0.17100   0.80080   0.00000  Uiso   1.00
H191   H     0.39903   0.34081   1.03131   0.00000  Uiso   1.00
H192   H     0.38430   0.50085   0.91999   0.00000  Uiso   1.00
H193   H     0.45082   0.46960   0.79902   0.00000  Uiso   1.00
H194   H     0.46493   0.28531   0.88100   0.00000  Uiso   1.00
H195   H     0.45895   0.59473   0.03835   0.00000  Uiso   1.00
H196   H     0.47679   0.40722   0.10931   0.00000  Uiso   1.00
H197   H     0.13784   0.63620   0.44936   0.00000  Uiso   1.00
H198   H     0.19741   0.60819   0.47660   0.00000  Uiso   1.00
H199   H     0.18398   0.91359   0.51763   0.00000  Uiso   1.00
H200   H     0.23334   0.80531   0.58246   0.00000  Uiso   1.00
H201   H     0.12959   0.83524   0.78414   0.00000  Uiso   1.00
H202   H     0.10461   0.67094   0.69911   0.00000  Uiso   1.00
H203   H     0.10080   0.84036   0.46872   0.00000  Uiso   1.00
H204   H     0.11576   1.00061   0.57959   0.00000  Uiso   1.00
H205   H     0.04932   0.97077   0.70100   0.00000  Uiso   1.00
H206   H     0.03499   0.78621   0.61979   0.00000  Uiso   1.00
H207   H     0.02318   0.90732   0.39095   0.00000  Uiso   1.00
H208   H     0.04107   1.09497   0.46148   0.00000  Uiso   1.00
H209   H     0.69742   0.10825   0.47636   0.00000  Uiso   1.00
H210   H     0.63783   0.13622   0.44924   0.00000  Uiso   1.00
H211   H     0.73334   0.30537   0.58204   0.00000  Uiso   1.00
H212   H     0.68396   0.41371   0.51743   0.00000  Uiso   1.00
H213   H     0.62967   0.33531   0.78405   0.00000  Uiso   1.00
H214   H     0.60468   0.17095   0.69913   0.00000  Uiso   1.00
H215   H     0.60093   0.34070   0.46862   0.00000  Uiso   1.00
H216   H     0.61569   0.50077   0.57988   0.00000  Uiso   1.00
H217   H     0.54918   0.46969   0.70091   0.00000  Uiso   1.00
H218   H     0.53504   0.28538   0.61900   0.00000  Uiso   1.00
H219   H     0.54103   0.59473   0.46155   0.00000  Uiso   1.00
H220   H     0.52317   0.40722   0.39065   0.00000  Uiso   1.00
loop_
_geom_bond_atom_site_label_1
_geom_bond_atom_site_label_2
_geom_bond_distance
_geom_bond_site_symmetry_2
_ccdc_geom_bond_type
P1     O5      1.601   .     A
P1     C9      1.846   .     S
P1     O3      1.745   1_554 S
P1     O4      1.618   1_554 A
P2     O7      1.761   .     S
P2     O8      1.547   .     D
P2     O6      1.757   1_565 S
P2     C10     1.867   1_565 S
O3     P1      1.745   1_556 S
O3     Mg121   2.050   1_556 S
O4     P1      1.618   1_556 A
O6     Mg124   2.030   .     S
O6     P2      1.757   1_545 S
O7     Mg121   2.053   .     S
C9     N11     1.487   .     S
C9     H125    1.097   .     S
C9     H126    1.104   .     S
C10    N11     1.481   .     S
C10    P2      1.867   1_545 S
C10    H127    1.101   .     S
C10    H128    1.097   .     S
N11    C12     1.481   .     S
C12    C13     1.543   .     S
C12    H129    1.112   .     S
C12    H130    1.108   .     S
C13    C14     1.520   .     S
C13    H131    1.109   .     S
C13    H132    1.106   .     S
C14    C15     1.524   1_554 S
C14    H133    1.113   .     S
C14    H134    1.109   .     S
C15    C14     1.524   1_556 S
C15    C75     1.517   1_446 S
C15    H135    1.113   .     S
C15    H136    1.112   .     S
P16    O20     1.601   .     A
P16    O18     1.745   1_554 S
P16    O19     1.618   1_554 A
P16    C24     1.846   1_545 S
P17    O21     1.757   .     S
P17    O22     1.761   .     S
P17    O23     1.547   .     D
P17    C25     1.867   .     S
O18    P16     1.745   1_556 S
O18    Mg123   2.050   1_556 S
O19    P16     1.618   1_556 A
O21    Mg122   2.030   .     S
O22    Mg123   2.053   .     S
C24    N26     1.487   .     S
C24    P16     1.846   1_565 S
C24    H137    1.104   .     S
C24    H138    1.097   .     S
C25    N26     1.481   .     S
C25    H139    1.097   .     S
C25    H140    1.101   .     S
N26    C27     1.481   .     S
C27    C28     1.543   .     S
C27    H141    1.112   .     S
C27    H142    1.108   .     S
C28    C29     1.520   .     S
C28    H143    1.109   .     S
C28    H144    1.106   .     S
C29    C30     1.524   1_554 S
C29    H145    1.113   .     S
C29    H146    1.109   .     S
C30    C29     1.524   1_556 S
C30    C90     1.517   1_556 S
C30    H147    1.113   .     S
C30    H148    1.112   .     S
P31    O33     1.745   .     S
P31    O34     1.618   .     A
P31    O35     1.601   .     A
P31    C39     1.846   .     S
P32    O37     1.761   .     S
P32    O38     1.547   .     D
P32    O36     1.757   1_565 S
P32    C40     1.867   1_565 S
O33    Mg122   2.050   .     S
O36    Mg123   2.030   .     S
O36    P32     1.757   1_545 S
O37    Mg122   2.053   .     S
C39    N41     1.487   .     S
C39    H149    1.097   .     S
C39    H150    1.104   .     S
C40    N41     1.481   .     S
C40    P32     1.867   1_545 S
C40    H151    1.101   .     S
C40    H152    1.097   .     S
N41    C42     1.481   .     S
C42    C43     1.543   .     S
C42    H153    1.112   .     S
C42    H154    1.108   .     S
C43    C44     1.520   .     S
C43    H155    1.109   .     S
C43    H156    1.106   .     S
C44    C45     1.524   .     S
C44    H157    1.113   .     S
C44    H158    1.109   .     S
C45    C105    1.517   1_645 S
C45    H159    1.113   .     S
C45    H160    1.112   .     S
P46    O48     1.745   .     S
P46    O49     1.618   .     A
P46    O50     1.601   .     A
P46    C54     1.846   1_545 S
P47    O51     1.757   .     S
P47    O52     1.761   .     S
P47    O53     1.547   .     D
P47    C55     1.867   .     S
O48    Mg124   2.050   .     S
O51    Mg121   2.030   .     S
O52    Mg124   2.053   .     S
C54    N56     1.487   .     S
C54    P46     1.846   1_565 S
C54    H161    1.104   .     S
C54    H162    1.097   .     S
C55    N56     1.481   .     S
C55    H163    1.097   .     S
C55    H164    1.101   .     S
N56    C57     1.481   .     S
C57    C58     1.543   .     S
C57    H165    1.112   .     S
C57    H166    1.108   .     S
C58    C59     1.520   .     S
C58    H167    1.109   .     S
C58    H168    1.106   .     S
C59    C60     1.524   .     S
C59    H169    1.113   .     S
C59    H170    1.109   .     S
C60    C120    1.517   .     S
C60    H171    1.113   .     S
C60    H172    1.112   .     S
P61    O65     1.601   .     A
P61    C69     1.846   .     S
P61    O63     1.745   1_556 S
P61    O64     1.618   1_556 A
P62    O67     1.761   .     S
P62    O68     1.547   .     D
P62    O66     1.757   1_545 S
P62    C70     1.867   1_545 S
O63    Mg123   2.050   .     S
O63    P61     1.745   1_554 S
O64    P61     1.618   1_554 A
O66    Mg122   2.030   .     S
O66    P62     1.757   1_565 S
O67    Mg123   2.053   1_556 S
C69    N71     1.487   .     S
C69    H173    1.104   .     S
C69    H174    1.097   .     S
C70    N71     1.481   .     S
C70    P62     1.867   1_565 S
C70    H175    1.097   .     S
C70    H176    1.101   .     S
N71    C72     1.481   .     S
C72    C73     1.543   .     S
C72    H177    1.108   .     S
C72    H178    1.112   .     S
C73    C74     1.520   .     S
C73    H179    1.106   .     S
C73    H180    1.109   .     S
C74    C75     1.524   1_556 S
C74    H181    1.109   .     S
C74    H182    1.113   .     S
C75    C15     1.517   1_664 S
C75    C74     1.524   1_554 S
C75    H183    1.113   .     S
C75    H184    1.112   .     S
P76    O80     1.601   .     A
P76    O78     1.745   1_556 S
P76    O79     1.618   1_556 A
P76    C84     1.846   1_565 S
P77    O81     1.757   .     S
P77    O82     1.761   .     S
P77    O83     1.547   .     D
P77    C85     1.867   .     S
O78    Mg121   2.050   .     S
O78    P76     1.745   1_554 S
O79    P76     1.618   1_554 A
O81    Mg124   2.030   .     S
O82    Mg121   2.053   1_556 S
C84    N86     1.487   .     S
C84    P76     1.846   1_545 S
C84    H185    1.097   .     S
C84    H186    1.104   .     S
C85    N86     1.481   .     S
C85    H187    1.101   .     S
C85    H188    1.097   .     S
N86    C87     1.481   .     S
C87    C88     1.543   .     S
C87    H189    1.108   .     S
C87    H190    1.112   .     S
C88    C89     1.521   .     S
C88    H191    1.106   .     S
C88    H192    1.109   .     S
C89    C90     1.524   1_556 S
C89    H193    1.109   .     S
C89    H194    1.113   .     S
C90    C30     1.517   1_554 S
C90    C89     1.524   1_554 S
C90    H195    1.113   .     S
C90    H196    1.112   .     S
P91    O93     1.745   .     S
P91    O94     1.618   .     A
P91    O95     1.601   .     A
P91    C99     1.846   .     S
P92    O97     1.761   .     S
P92    O98     1.547   .     D
P92    O96     1.757   1_545 S
P92    C100    1.867   1_545 S
O93    Mg124   2.050   .     S
O96    P92     1.757   1_565 S
O96    Mg121   2.030   1_556 S
O97    Mg124   2.053   .     S
C99    N101    1.487   .     S
C99    H197    1.104   .     S
C99    H198    1.097   .     S
C100   N101    1.481   .     S
C100   P92     1.867   1_565 S
C100   H199    1.097   .     S
C100   H200    1.101   .     S
N101   C102    1.481   .     S
C102   C103    1.543   .     S
C102   H201    1.108   .     S
C102   H202    1.112   .     S
C103   C104    1.520   .     S
C103   H203    1.106   .     S
C103   H204    1.109   .     S
C104   C105    1.524   .     S
C104   H205    1.109   .     S
C104   H206    1.113   .     S
C105   C45     1.517   1_465 S
C105   H207    1.112   .     S
C105   H208    1.113   .     S
P106   O108    1.745   .     S
P106   O109    1.618   .     A
P106   O110    1.601   .     A
P106   C114    1.846   1_565 S
P107   O111    1.757   .     S
P107   O112    1.761   .     S
P107   O113    1.547   .     D
P107   C115    1.867   .     S
O108   Mg122   2.050   .     S
O111   Mg123   2.030   1_556 S
O112   Mg122   2.053   .     S
C114   N116    1.487   .     S
C114   P106    1.846   1_545 S
C114   H209    1.097   .     S
C114   H210    1.104   .     S
C115   N116    1.481   .     S
C115   H211    1.101   .     S
C115   H212    1.097   .     S
N116   C117    1.481   .     S
C117   C118    1.544   .     S
C117   H213    1.108   .     S
C117   H214    1.112   .     S
C118   C119    1.521   .     S
C118   H215    1.106   .     S
C118   H216    1.109   .     S
C119   C120    1.524   .     S
C119   H217    1.109   .     S
C119   H218    1.113   .     S
C120   H219    1.113   .     S
C120   H220    1.112   .     S
Mg121  O3      2.050   1_554 S
Mg121  O82     2.053   1_554 S
Mg121  O96     2.030   1_554 S
Mg123  O18     2.050   1_554 S
Mg123  O67     2.053   1_554 S
Mg123  O111    2.030   1_554 S
