data_WELNEI_FSR
_audit_creation_date              2024-06-11
_audit_creation_method            'Materials Studio'
_symmetry_space_group_name_H-M    'P1'
_symmetry_Int_Tables_number       1
_symmetry_cell_setting            triclinic
loop_
_symmetry_equiv_pos_as_xyz
  x,y,z
_cell_length_a                    6.8101
_cell_length_b                    9.5015
_cell_length_c                    21.2601
_cell_angle_alpha                 90.0000
_cell_angle_beta                  90.0000
_cell_angle_gamma                 90.0000
loop_
_atom_site_label
_atom_site_type_symbol
_atom_site_fract_x
_atom_site_fract_y
_atom_site_fract_z
_atom_site_U_iso_or_equiv
_atom_site_adp_type
_atom_site_occupancy
C1     C     0.64080   0.92190   0.43150   0.00000  Uiso   1.00
C2     C     0.61250   0.77600   0.40480   0.00000  Uiso   1.00
H3     H     0.68940   0.71050   0.43050   0.00000  Uiso   1.00
C4     C     0.68410   0.76340   0.33700   0.00000  Uiso   1.00
H5     H     0.82280   0.78620   0.33500   0.00000  Uiso   1.00
H6     H     0.61370   0.83000   0.31080   0.00000  Uiso   1.00
C7     C     0.65120   0.61440   0.31230   0.00000  Uiso   1.00
H8     H     0.69210   0.60940   0.26870   0.00000  Uiso   1.00
H9     H     0.73110   0.54890   0.33620   0.00000  Uiso   1.00
C10    C     0.39780   0.73210   0.40900   0.00000  Uiso   1.00
H11    H     0.35420   0.73640   0.45240   0.00000  Uiso   1.00
H12    H     0.31760   0.79610   0.38440   0.00000  Uiso   1.00
C13    C     0.44070   0.57310   0.31740   0.00000  Uiso   1.00
H14    H     0.42390   0.47740   0.30250   0.00000  Uiso   1.00
H15    H     0.36130   0.63460   0.29130   0.00000  Uiso   1.00
C16    C     0.16410   0.53150   0.39170   0.00000  Uiso   1.00
H17    H     0.08740   0.55880   0.35520   0.00000  Uiso   1.00
H18    H     0.10540   0.57450   0.42860   0.00000  Uiso   1.00
Ca19   Ca    0.65270   0.22604   0.45601   0.00000  Uiso   1.00
N20    N     0.37410   0.58320   0.38420   0.00000  Uiso   1.00
H21    H     0.45270   0.52640   0.40770   0.00000  Uiso   1.00
O22    O     0.96430   0.30420   0.42935   0.00000  Uiso   1.00
O23    O     0.32470   0.31260   0.44639   0.00000  Uiso   1.00
O24    O     0.19730   0.27370   0.33600   0.00000  Uiso   1.00
O25    O     0.49660   0.98770   0.45447   0.00000  Uiso   1.00
O26    O     0.80980   0.97640   0.42919   0.00000  Uiso   1.00
O27    O     0.59920   0.22580   0.34524   0.00000  Uiso   1.00
H28    H     0.71980   0.20280   0.32420   0.00000  Uiso   1.00
H29    H     0.46490   0.24930   0.33650   0.00000  Uiso   1.00
O30    O     0.63800   0.47520   0.49148   0.00000  Uiso   1.00
H31    H     0.51570   0.49190   0.51270   0.00000  Uiso   1.00
H32    H     0.74480   0.49350   0.51980   0.00000  Uiso   1.00
P33    P     0.16020   0.33803   0.40007   0.00000  Uiso   1.00
C34    C     0.85920   0.07810  -0.06850   0.00000  Uiso   1.00
C35    C     0.88750   0.22400  -0.09520   0.00000  Uiso   1.00
H36    H     0.81060   0.28950  -0.06950   0.00000  Uiso   1.00
C37    C     0.81590   0.23660  -0.16300   0.00000  Uiso   1.00
H38    H     0.67720   0.21380  -0.16500   0.00000  Uiso   1.00
H39    H     0.88630   0.17000  -0.18920   0.00000  Uiso   1.00
C40    C     0.84880   0.38560  -0.18770   0.00000  Uiso   1.00
H41    H     0.80790   0.39060  -0.23130   0.00000  Uiso   1.00
H42    H     0.76890   0.45110  -0.16380   0.00000  Uiso   1.00
C43    C     0.10220   0.26790  -0.09100   0.00000  Uiso   1.00
H44    H     0.14580   0.26360  -0.04760   0.00000  Uiso   1.00
H45    H     0.18240   0.20390  -0.11560   0.00000  Uiso   1.00
C46    C     0.05930   0.42690  -0.18260   0.00000  Uiso   1.00
H47    H     0.07610   0.52260  -0.19750   0.00000  Uiso   1.00
H48    H     0.13870   0.36540  -0.20870   0.00000  Uiso   1.00
C49    C     0.33590   0.46850  -0.10830   0.00000  Uiso   1.00
H50    H     0.41260   0.44120  -0.14480   0.00000  Uiso   1.00
H51    H     0.39460   0.42550  -0.07140   0.00000  Uiso   1.00
Ca52   Ca    0.84730   0.77396  -0.04399   0.00000  Uiso   1.00
N53    N     0.12590   0.41680  -0.11580   0.00000  Uiso   1.00
H54    H     0.04730   0.47360  -0.09230   0.00000  Uiso   1.00
O55    O     0.53570   0.69580  -0.07065   0.00000  Uiso   1.00
O56    O     0.17530   0.68740  -0.05361   0.00000  Uiso   1.00
O57    O     0.30270   0.72630  -0.16400   0.00000  Uiso   1.00
O58    O     0.00340   0.01230  -0.04553   0.00000  Uiso   1.00
O59    O     0.69020   0.02360  -0.07081   0.00000  Uiso   1.00
O60    O     0.90080   0.77420  -0.15476   0.00000  Uiso   1.00
H61    H     0.78020   0.79720  -0.17580   0.00000  Uiso   1.00
H62    H     0.03510   0.75070  -0.16350   0.00000  Uiso   1.00
O63    O     0.86200   0.52480  -0.00852   0.00000  Uiso   1.00
H64    H     0.98430   0.50810   0.01270   0.00000  Uiso   1.00
H65    H     0.75520   0.50650   0.01980   0.00000  Uiso   1.00
P66    P     0.33980   0.66197  -0.09993   0.00000  Uiso   1.00
C67    C     0.35920   0.42190   0.06850   0.00000  Uiso   1.00
C68    C     0.38750   0.27600   0.09520   0.00000  Uiso   1.00
H69    H     0.31060   0.21050   0.06950   0.00000  Uiso   1.00
C70    C     0.31590   0.26340   0.16300   0.00000  Uiso   1.00
H71    H     0.17720   0.28620   0.16500   0.00000  Uiso   1.00
H72    H     0.38630   0.33000   0.18920   0.00000  Uiso   1.00
C73    C     0.34880   0.11440   0.18770   0.00000  Uiso   1.00
H74    H     0.30790   0.10940   0.23130   0.00000  Uiso   1.00
H75    H     0.26890   0.04890   0.16380   0.00000  Uiso   1.00
C76    C     0.60220   0.23210   0.09100   0.00000  Uiso   1.00
H77    H     0.64580   0.23640   0.04760   0.00000  Uiso   1.00
H78    H     0.68240   0.29610   0.11560   0.00000  Uiso   1.00
C79    C     0.55930   0.07310   0.18260   0.00000  Uiso   1.00
H80    H     0.57610   0.97740   0.19750   0.00000  Uiso   1.00
H81    H     0.63870   0.13460   0.20870   0.00000  Uiso   1.00
C82    C     0.83590   0.03150   0.10830   0.00000  Uiso   1.00
H83    H     0.91260   0.05880   0.14480   0.00000  Uiso   1.00
H84    H     0.89460   0.07450   0.07140   0.00000  Uiso   1.00
Ca85   Ca    0.34730   0.72604   0.04399   0.00000  Uiso   1.00
N86    N     0.62590   0.08320   0.11580   0.00000  Uiso   1.00
H87    H     0.54730   0.02640   0.09230   0.00000  Uiso   1.00
O88    O     0.03570   0.80420   0.07065   0.00000  Uiso   1.00
O89    O     0.67530   0.81260   0.05361   0.00000  Uiso   1.00
O90    O     0.80270   0.77370   0.16400   0.00000  Uiso   1.00
O91    O     0.50340   0.48770   0.04553   0.00000  Uiso   1.00
O92    O     0.19020   0.47640   0.07081   0.00000  Uiso   1.00
O93    O     0.40080   0.72580   0.15476   0.00000  Uiso   1.00
H94    H     0.28020   0.70280   0.17580   0.00000  Uiso   1.00
H95    H     0.53510   0.74930   0.16350   0.00000  Uiso   1.00
O96    O     0.36200   0.97520   0.00852   0.00000  Uiso   1.00
H97    H     0.48430   0.99190  -0.01270   0.00000  Uiso   1.00
H98    H     0.25520   0.99350  -0.01980   0.00000  Uiso   1.00
P99    P     0.83980   0.83803   0.09993   0.00000  Uiso   1.00
C100   C     0.14080   0.57810   0.56850   0.00000  Uiso   1.00
C101   C     0.11250   0.72400   0.59520   0.00000  Uiso   1.00
H102   H     0.18940   0.78950   0.56950   0.00000  Uiso   1.00
C103   C     0.18410   0.73660   0.66300   0.00000  Uiso   1.00
H104   H     0.32280   0.71380   0.66500   0.00000  Uiso   1.00
H105   H     0.11370   0.67000   0.68920   0.00000  Uiso   1.00
C106   C     0.15120   0.88560   0.68770   0.00000  Uiso   1.00
H107   H     0.19210   0.89060   0.73130   0.00000  Uiso   1.00
H108   H     0.23110   0.95110   0.66380   0.00000  Uiso   1.00
C109   C     0.89780   0.76790   0.59100   0.00000  Uiso   1.00
H110   H     0.85420   0.76360   0.54760   0.00000  Uiso   1.00
H111   H     0.81760   0.70390   0.61560   0.00000  Uiso   1.00
C112   C     0.94070   0.92690   0.68260   0.00000  Uiso   1.00
H113   H     0.92390   0.02260   0.69750   0.00000  Uiso   1.00
H114   H     0.86130   0.86540   0.70870   0.00000  Uiso   1.00
C115   C     0.66410   0.96850   0.60830   0.00000  Uiso   1.00
H116   H     0.58740   0.94120   0.64480   0.00000  Uiso   1.00
H117   H     0.60540   0.92550   0.57140   0.00000  Uiso   1.00
Ca118  Ca    0.15270   0.27396   0.54399   0.00000  Uiso   1.00
N119   N     0.87410   0.91680   0.61580   0.00000  Uiso   1.00
H120   H     0.95270   0.97360   0.59230   0.00000  Uiso   1.00
O121   O     0.46430   0.19580   0.57065   0.00000  Uiso   1.00
O122   O     0.82470   0.18740   0.55361   0.00000  Uiso   1.00
O123   O     0.69730   0.22630   0.66400   0.00000  Uiso   1.00
O124   O     0.99660   0.51230   0.54553   0.00000  Uiso   1.00
O125   O     0.30980   0.52360   0.57081   0.00000  Uiso   1.00
O126   O     0.09920   0.27420   0.65476   0.00000  Uiso   1.00
H127   H     0.21980   0.29720   0.67580   0.00000  Uiso   1.00
H128   H     0.96490   0.25070   0.66350   0.00000  Uiso   1.00
O129   O     0.13800   0.02480   0.50852   0.00000  Uiso   1.00
H130   H     0.01570   0.00810   0.48730   0.00000  Uiso   1.00
H131   H     0.24480   0.00650   0.48020   0.00000  Uiso   1.00
P132   P     0.66020   0.16197   0.59993   0.00000  Uiso   1.00
loop_
_geom_bond_atom_site_label_1
_geom_bond_atom_site_label_2
_geom_bond_distance
_geom_bond_site_symmetry_2
_ccdc_geom_bond_type
C1     C2      1.510   .     S
C1     O25     1.262   .     S
C1     O26     1.263   .     S
C2     H3      0.980   .     S
C2     C4      1.526   .     S
C2     C10     1.523   .     S
C4     H5      0.970   .     S
C4     H6      0.970   .     S
C4     C7      1.527   .     S
C7     H8      0.969   .     S
C7     H9      0.970   .     S
C7     C13     1.490   .     S
C10    H11     0.970   .     S
C10    H12     0.970   .     S
C10    N20     1.518   .     S
C13    H14     0.970   .     S
C13    H15     0.970   .     S
C13    N20     1.494   .     S
C16    H17     0.971   .     S
C16    H18     0.971   .     S
C16    P33     1.847   .     S
C16    N20     1.521   .     S
Ca19   O22     2.319   .     S
Ca19   O27     2.383   .     S
Ca19   O30     2.487   .     S
Ca19   O121    2.769   .     S
Ca19   O23     2.389   .     S
Ca19   O122    2.411   .     S
Ca19   O25     2.502   1_545 S
Ca19   O26     2.664   1_545 S
N20    H21     0.910   .     S
O22    P33     1.507   1_655 S
O22    Ca118   2.769   1_655 S
O23    P33     1.511   .     S
O23    Ca118   2.411   .     S
O24    P33     1.514   .     S
O25    Ca19    2.502   1_565 S
O26    Ca19    2.664   1_565 S
O27    H28     0.960   .     S
O27    H29     0.960   .     S
O30    H31     0.960   .     S
O30    H32     0.960   .     S
P33    O22     1.507   1_455 S
C34    C35     1.510   .     S
C34    O58     1.262   1_655 S
C34    O59     1.263   .     S
C35    H36     0.980   .     S
C35    C37     1.526   .     S
C35    C43     1.523   1_655 S
C37    H38     0.970   .     S
C37    H39     0.970   .     S
C37    C40     1.527   .     S
C40    H41     0.969   .     S
C40    H42     0.970   .     S
C40    C46     1.490   1_655 S
C43    C35     1.523   1_455 S
C43    H44     0.970   .     S
C43    H45     0.970   .     S
C43    N53     1.518   .     S
C46    C40     1.490   1_455 S
C46    H47     0.970   .     S
C46    H48     0.970   .     S
C46    N53     1.494   .     S
C49    H50     0.971   .     S
C49    H51     0.971   .     S
C49    P66     1.847   .     S
C49    N53     1.521   .     S
Ca52   O55     2.319   .     S
Ca52   O60     2.383   .     S
Ca52   O63     2.487   .     S
Ca52   O88     2.769   1_655 S
Ca52   O56     2.389   1_655 S
Ca52   O89     2.411   .     S
Ca52   O58     2.502   1_665 S
Ca52   O59     2.664   1_565 S
N53    H54     0.910   .     S
O55    P66     1.507   .     S
O55    Ca85    2.769   .     S
O56    P66     1.511   .     S
O56    Ca52    2.389   1_455 S
O56    Ca85    2.411   .     S
O57    P66     1.514   .     S
O58    C34     1.262   1_455 S
O58    Ca52    2.502   1_445 S
O59    Ca52    2.664   1_545 S
O60    H61     0.960   .     S
O60    H62     0.960   1_655 S
H62    O60     0.960   1_455 S
O63    H64     0.960   .     S
O63    H65     0.960   .     S
C67    C68     1.510   .     S
C67    O91     1.262   .     S
C67    O92     1.263   .     S
C68    H69     0.980   .     S
C68    C70     1.526   .     S
C68    C76     1.523   .     S
C70    H71     0.970   .     S
C70    H72     0.970   .     S
C70    C73     1.527   .     S
C73    H74     0.969   .     S
C73    H75     0.970   .     S
C73    C79     1.490   .     S
C76    H77     0.970   .     S
C76    H78     0.970   .     S
C76    N86     1.518   .     S
C79    H80     0.970   1_545 S
C79    H81     0.970   .     S
C79    N86     1.494   .     S
H80    C79     0.970   1_565 S
C82    H83     0.971   .     S
C82    H84     0.971   .     S
C82    P99     1.847   1_545 S
C82    N86     1.521   .     S
Ca85   O88     2.319   .     S
Ca85   O93     2.383   .     S
Ca85   O96     2.487   .     S
Ca85   O89     2.389   .     S
Ca85   O91     2.502   .     S
Ca85   O92     2.664   .     S
N86    H87     0.910   .     S
O88    P99     1.507   1_455 S
O88    Ca52    2.769   1_455 S
O89    P99     1.511   .     S
O90    P99     1.514   .     S
O93    H94     0.960   .     S
O93    H95     0.960   .     S
O96    H97     0.960   .     S
O96    H98     0.960   .     S
P99    O88     1.507   1_655 S
P99    C82     1.847   1_565 S
C100   C101    1.510   .     S
C100   O124    1.262   1_455 S
C100   O125    1.263   .     S
C101   H102    0.980   .     S
C101   C103    1.526   .     S
C101   C109    1.523   1_455 S
C103   H104    0.970   .     S
C103   H105    0.970   .     S
C103   C106    1.527   .     S
C106   H107    0.969   .     S
C106   H108    0.970   .     S
C106   C112    1.490   1_455 S
C109   C101    1.523   1_655 S
C109   H110    0.970   .     S
C109   H111    0.970   .     S
C109   N119    1.518   .     S
C112   C106    1.490   1_655 S
C112   H113    0.970   1_565 S
C112   H114    0.970   .     S
C112   N119    1.494   .     S
H113   C112    0.970   1_545 S
C115   H116    0.971   .     S
C115   H117    0.971   .     S
C115   P132    1.847   1_565 S
C115   N119    1.521   .     S
Ca118  O121    2.319   .     S
Ca118  O126    2.383   .     S
Ca118  O129    2.487   .     S
Ca118  O22     2.769   1_455 S
Ca118  O122    2.389   1_455 S
Ca118  O124    2.502   1_455 S
Ca118  O125    2.664   .     S
N119   H120    0.910   .     S
O121   P132    1.507   .     S
O122   P132    1.511   .     S
O122   Ca118   2.389   1_655 S
O123   P132    1.514   .     S
O124   C100    1.262   1_655 S
O124   Ca118   2.502   1_655 S
O126   H127    0.960   .     S
O126   H128    0.960   1_455 S
H128   O126    0.960   1_655 S
O129   H130    0.960   .     S
O129   H131    0.960   .     S
P132   C115    1.847   1_545 S
