data_WUFCEI_FSR
_audit_creation_date              2024-06-11
_audit_creation_method            'Materials Studio'
_symmetry_space_group_name_H-M    'P1'
_symmetry_Int_Tables_number       1
_symmetry_cell_setting            triclinic
loop_
_symmetry_equiv_pos_as_xyz
  x,y,z
_cell_length_a                    9.6056
_cell_length_b                    15.4240
_cell_length_c                    16.7800
_cell_angle_alpha                 95.4340
_cell_angle_beta                  106.2660
_cell_angle_gamma                 91.7650
loop_
_atom_site_label
_atom_site_type_symbol
_atom_site_fract_x
_atom_site_fract_y
_atom_site_fract_z
_atom_site_U_iso_or_equiv
_atom_site_adp_type
_atom_site_occupancy
La1    La    0.28704   0.55640   0.08450   0.00000  Uiso   1.00
La2    La    0.88588   0.65801   0.09422   0.00000  Uiso   1.00
P3     P     0.49612   0.40347   0.06409   0.00000  Uiso   1.00
P4     P     0.02392   0.58141   0.92497   0.00000  Uiso   1.00
P5     P     0.22042   0.59295   0.25883   0.00000  Uiso   1.00
O6     O     0.52130   0.48270   0.12810   0.00000  Uiso   1.00
O7     O     0.00790   0.81230   0.09600   0.00000  Uiso   1.00
O8     O     0.07390   0.64410   0.00410   0.00000  Uiso   1.00
O9     O     0.83270   0.76800   0.98200   0.00000  Uiso   1.00
O10    O     0.61280   0.39190   0.02090   0.00000  Uiso   1.00
O11    O     0.35190   0.55400   0.24050   0.00000  Uiso   1.00
O12    O     0.42560   0.70510   0.14590   0.00000  Uiso   1.00
H13    H     0.36521   0.74305   0.15282   0.00000  Uiso   1.00
H14    H     0.46312   0.72505   0.11000   0.00000  Uiso   1.00
O15    O     0.89210   0.75810   0.23080   0.00000  Uiso   1.00
O16    O     0.13940   0.53460   0.29940   0.00000  Uiso   1.00
O17    O     0.12790   0.62450   0.17820   0.00000  Uiso   1.00
O18    O     0.34400   0.40300   0.00630   0.00000  Uiso   1.00
O19    O     0.69310   0.76230   0.12520   0.00000  Uiso   1.00
O20    O     0.86170   0.56400   0.89280   0.00000  Uiso   1.00
O21    O     0.76910   0.57900   0.18950   0.00000  Uiso   1.00
H22    H     0.82685   0.58382   0.23861   0.00000  Uiso   1.00
H23    H     0.76048   0.52455   0.17398   0.00000  Uiso   1.00
N24    N     0.47050   0.22470   0.07410   0.00000  Uiso   1.00
H25    H     0.38725   0.22812   0.02512   0.00000  Uiso   1.00
O26    O     0.10660   0.50050   0.94150   0.00000  Uiso   1.00
C27    C     0.52190   0.04220   0.03000   0.00000  Uiso   1.00
H28    H     0.60610   0.03116   0.07592   0.00000  Uiso   1.00
N29    N     0.95210   0.63590   0.76670   0.00000  Uiso   1.00
H30    H     0.89326   0.58059   0.75336   0.00000  Uiso   1.00
C31    C     0.39920   0.06890   0.06730   0.00000  Uiso   1.00
H32    H     0.31155   0.07330   0.02226   0.00000  Uiso   1.00
H33    H     0.38007   0.02385   0.10008   0.00000  Uiso   1.00
N34    N     0.42720   0.68820   0.39040   0.00000  Uiso   1.00
H35    H     0.49139   0.65641   0.36327   0.00000  Uiso   1.00
C36    C     0.94580   0.81680   0.01930   0.00000  Uiso   1.00
C37    C     0.07910   0.62740   0.84020   0.00000  Uiso   1.00
H38    H     0.12831   0.68435   0.86076   0.00000  Uiso   1.00
H39    H     0.14707   0.58995   0.82291   0.00000  Uiso   1.00
C40    C     0.56570   0.11680   0.98680   0.00000  Uiso   1.00
H41    H     0.65075   0.10210   0.96913   0.00000  Uiso   1.00
H42    H     0.48744   0.12431   0.93730   0.00000  Uiso   1.00
C43    C     0.43460   0.15410   0.12140   0.00000  Uiso   1.00
H44    H     0.35219   0.16948   0.14140   0.00000  Uiso   1.00
H45    H     0.51659   0.14841   0.16949   0.00000  Uiso   1.00
C46    C     0.00200   0.65290   0.69160   0.00000  Uiso   1.00
H47    H     0.06380   0.60751   0.68040   0.00000  Uiso   1.00
H48    H     0.05740   0.70849   0.70226   0.00000  Uiso   1.00
C49    C     0.49640   0.31160   0.12510   0.00000  Uiso   1.00
H50    H     0.58929   0.31314   0.16735   0.00000  Uiso   1.00
H51    H     0.42174   0.31830   0.15360   0.00000  Uiso   1.00
C52    C     0.85890   0.70650   0.78420   0.00000  Uiso   1.00
H53    H     0.91175   0.76269   0.79183   0.00000  Uiso   1.00
H54    H     0.83371   0.69845   0.83519   0.00000  Uiso   1.00
C55    C     0.76960   0.78860   0.19920   0.00000  Uiso   1.00
C56    C     0.00590   0.87680   0.97180   0.00000  Uiso   1.00
H57    H     0.06534   0.92287   0.00974   0.00000  Uiso   1.00
H58    H     0.92765   0.90130   0.93294   0.00000  Uiso   1.00
H59    H     0.06356   0.84527   0.94192   0.00000  Uiso   1.00
C60    C     0.72320   0.70450   0.71290   0.00000  Uiso   1.00
H61    H     0.66106   0.74907   0.72540   0.00000  Uiso   1.00
H62    H     0.67059   0.64825   0.70525   0.00000  Uiso   1.00
C63    C     0.86780   0.65400   0.61630   0.00000  Uiso   1.00
H64    H     0.89880   0.66738   0.56831   0.00000  Uiso   1.00
H65    H     0.81847   0.59635   0.60311   0.00000  Uiso   1.00
C66    C     0.59870   0.20140   0.04370   0.00000  Uiso   1.00
H67    H     0.68193   0.19552   0.09108   0.00000  Uiso   1.00
H68    H     0.62306   0.24771   0.01376   0.00000  Uiso   1.00
C69    C     0.28550   0.69570   0.32550   0.00000  Uiso   1.00
H70    H     0.29752   0.74069   0.29086   0.00000  Uiso   1.00
H71    H     0.21306   0.71344   0.35302   0.00000  Uiso   1.00
C72    C     0.76120   0.72070   0.63190   0.00000  Uiso   1.00
H73    H     0.81088   0.77872   0.64072   0.00000  Uiso   1.00
C74    C     0.40720   0.63830   0.45810   0.00000  Uiso   1.00
H75    H     0.36498   0.58035   0.43460   0.00000  Uiso   1.00
H76    H     0.34041   0.66726   0.48423   0.00000  Uiso   1.00
C77    C     0.62190   0.72070   0.55880   0.00000  Uiso   1.00
H78    H     0.55195   0.75212   0.58156   0.00000  Uiso   1.00
C79    C     0.49840   0.77750   0.42440   0.00000  Uiso   1.00
H80    H     0.51356   0.80786   0.37921   0.00000  Uiso   1.00
H81    H     0.43547   0.81109   0.45003   0.00000  Uiso   1.00
C82    C     0.54960   0.63110   0.52290   0.00000  Uiso   1.00
H83    H     0.61354   0.59780   0.49785   0.00000  Uiso   1.00
H84    H     0.53304   0.60030   0.56749   0.00000  Uiso   1.00
C85    C     0.64090   0.77020   0.48770   0.00000  Uiso   1.00
H86    H     0.68471   0.82811   0.51006   0.00000  Uiso   1.00
H87    H     0.70588   0.73998   0.46106   0.00000  Uiso   1.00
C88    C     0.71730   0.85910   0.25010   0.00000  Uiso   1.00
H89    H     0.61313   0.85757   0.23206   0.00000  Uiso   1.00
H90    H     0.75616   0.91490   0.24285   0.00000  Uiso   1.00
H91    H     0.74935   0.84969   0.30805   0.00000  Uiso   1.00
La92   La    0.71296   0.44360   0.91550   0.00000  Uiso   1.00
La93   La    0.11412   0.34199   0.90578   0.00000  Uiso   1.00
P94    P     0.50388   0.59653   0.93591   0.00000  Uiso   1.00
P95    P     0.97608   0.41859   0.07503   0.00000  Uiso   1.00
P96    P     0.77958   0.40705   0.74117   0.00000  Uiso   1.00
O97    O     0.47870   0.51730   0.87190   0.00000  Uiso   1.00
O98    O     0.99210   0.18770   0.90400   0.00000  Uiso   1.00
O99    O     0.92610   0.35590   0.99590   0.00000  Uiso   1.00
O100   O     0.16730   0.23200   0.01800   0.00000  Uiso   1.00
O101   O     0.38720   0.60810   0.97910   0.00000  Uiso   1.00
O102   O     0.64810   0.44600   0.75950   0.00000  Uiso   1.00
O103   O     0.57440   0.29490   0.85410   0.00000  Uiso   1.00
H104   H     0.63479   0.25695   0.84718   0.00000  Uiso   1.00
H105   H     0.53688   0.27495   0.89000   0.00000  Uiso   1.00
O106   O     0.10790   0.24190   0.76920   0.00000  Uiso   1.00
O107   O     0.86060   0.46540   0.70060   0.00000  Uiso   1.00
O108   O     0.87210   0.37550   0.82180   0.00000  Uiso   1.00
O109   O     0.65600   0.59700   0.99370   0.00000  Uiso   1.00
O110   O     0.30690   0.23770   0.87480   0.00000  Uiso   1.00
O111   O     0.13830   0.43600   0.10720   0.00000  Uiso   1.00
O112   O     0.23090   0.42100   0.81050   0.00000  Uiso   1.00
H113   H     0.17315   0.41618   0.76139   0.00000  Uiso   1.00
H114   H     0.23952   0.47545   0.82602   0.00000  Uiso   1.00
N115   N     0.52950   0.77530   0.92590   0.00000  Uiso   1.00
H116   H     0.61275   0.77188   0.97489   0.00000  Uiso   1.00
O117   O     0.89340   0.49950   0.05850   0.00000  Uiso   1.00
C118   C     0.47810   0.95780   0.97000   0.00000  Uiso   1.00
H119   H     0.39390   0.96884   0.92407   0.00000  Uiso   1.00
N120   N     0.04790   0.36410   0.23330   0.00000  Uiso   1.00
H121   H     0.10674   0.41941   0.24664   0.00000  Uiso   1.00
C122   C     0.60080   0.93110   0.93270   0.00000  Uiso   1.00
H123   H     0.68845   0.92670   0.97774   0.00000  Uiso   1.00
H124   H     0.61993   0.97615   0.89992   0.00000  Uiso   1.00
N125   N     0.57280   0.31180   0.60960   0.00000  Uiso   1.00
H126   H     0.50861   0.34359   0.63673   0.00000  Uiso   1.00
C127   C     0.05420   0.18320   0.98070   0.00000  Uiso   1.00
C128   C     0.92090   0.37260   0.15980   0.00000  Uiso   1.00
H129   H     0.87169   0.31565   0.13923   0.00000  Uiso   1.00
H130   H     0.85293   0.41005   0.17709   0.00000  Uiso   1.00
C131   C     0.43430   0.88320   0.01320   0.00000  Uiso   1.00
H132   H     0.34925   0.89790   0.03086   0.00000  Uiso   1.00
H133   H     0.51256   0.87569   0.06270   0.00000  Uiso   1.00
C134   C     0.56540   0.84590   0.87860   0.00000  Uiso   1.00
H135   H     0.64781   0.83052   0.85860   0.00000  Uiso   1.00
H136   H     0.48341   0.85159   0.83051   0.00000  Uiso   1.00
C137   C     0.99800   0.34710   0.30840   0.00000  Uiso   1.00
H138   H     0.93620   0.39249   0.31960   0.00000  Uiso   1.00
H139   H     0.94260   0.29151   0.29774   0.00000  Uiso   1.00
C140   C     0.50360   0.68840   0.87490   0.00000  Uiso   1.00
H141   H     0.41071   0.68686   0.83265   0.00000  Uiso   1.00
H142   H     0.57826   0.68170   0.84640   0.00000  Uiso   1.00
C143   C     0.14110   0.29350   0.21580   0.00000  Uiso   1.00
H144   H     0.08825   0.23731   0.20817   0.00000  Uiso   1.00
H145   H     0.16629   0.30155   0.16481   0.00000  Uiso   1.00
C146   C     0.23040   0.21140   0.80080   0.00000  Uiso   1.00
C147   C     0.99410   0.12320   0.02820   0.00000  Uiso   1.00
H148   H     0.93466   0.07713   0.99026   0.00000  Uiso   1.00
H149   H     0.07235   0.09870   0.06706   0.00000  Uiso   1.00
H150   H     0.93644   0.15473   0.05808   0.00000  Uiso   1.00
C151   C     0.27680   0.29550   0.28710   0.00000  Uiso   1.00
H152   H     0.33894   0.25093   0.27460   0.00000  Uiso   1.00
H153   H     0.32941   0.35175   0.29475   0.00000  Uiso   1.00
C154   C     0.13220   0.34600   0.38370   0.00000  Uiso   1.00
H155   H     0.10120   0.33262   0.43169   0.00000  Uiso   1.00
H156   H     0.18153   0.40365   0.39689   0.00000  Uiso   1.00
C157   C     0.40130   0.79860   0.95630   0.00000  Uiso   1.00
H158   H     0.31807   0.80448   0.90892   0.00000  Uiso   1.00
H159   H     0.37694   0.75229   0.98624   0.00000  Uiso   1.00
C160   C     0.71450   0.30430   0.67450   0.00000  Uiso   1.00
H161   H     0.70248   0.25931   0.70914   0.00000  Uiso   1.00
H162   H     0.78694   0.28656   0.64698   0.00000  Uiso   1.00
C163   C     0.23880   0.27930   0.36810   0.00000  Uiso   1.00
H164   H     0.18913   0.22128   0.35928   0.00000  Uiso   1.00
C165   C     0.59280   0.36170   0.54190   0.00000  Uiso   1.00
H166   H     0.63502   0.41965   0.56540   0.00000  Uiso   1.00
H167   H     0.65959   0.33275   0.51577   0.00000  Uiso   1.00
C168   C     0.37810   0.27930   0.44120   0.00000  Uiso   1.00
H169   H     0.44805   0.24788   0.41844   0.00000  Uiso   1.00
C170   C     0.50160   0.22250   0.57560   0.00000  Uiso   1.00
H171   H     0.48644   0.19214   0.62079   0.00000  Uiso   1.00
H172   H     0.56453   0.18891   0.54997   0.00000  Uiso   1.00
C173   C     0.45040   0.36890   0.47710   0.00000  Uiso   1.00
H174   H     0.38646   0.40220   0.50215   0.00000  Uiso   1.00
H175   H     0.46696   0.39970   0.43251   0.00000  Uiso   1.00
C176   C     0.35910   0.22980   0.51230   0.00000  Uiso   1.00
H177   H     0.31529   0.17189   0.48994   0.00000  Uiso   1.00
H178   H     0.29412   0.26002   0.53894   0.00000  Uiso   1.00
C179   C     0.28270   0.14090   0.74990   0.00000  Uiso   1.00
H180   H     0.38687   0.14243   0.76794   0.00000  Uiso   1.00
H181   H     0.24384   0.08511   0.75715   0.00000  Uiso   1.00
H182   H     0.25065   0.15031   0.69194   0.00000  Uiso   1.00
loop_
_geom_bond_atom_site_label_1
_geom_bond_atom_site_label_2
_geom_bond_distance
_geom_bond_site_symmetry_2
_ccdc_geom_bond_type
La1    O6      2.507   .     S
La1    O8      2.610   .     S
La1    O12     2.586   .     S
La1    O18     2.741   .     S
La1    O26     2.587   1_554 S
La1    O101    2.421   1_554 S
La1    O11     2.520   .     S
La1    O17     2.654   .     S
La1    O111    2.431   .     S
La2    O7      2.614   1_655 S
La2    O9      2.609   1_554 S
La2    O15     2.624   .     S
La2    O17     2.456   1_655 S
La2    O19     2.617   .     S
La2    O21     2.567   .     S
La2    O117    2.470   .     S
La2    O8      2.662   1_655 S
La2    O109    2.468   1_554 S
P3     O6      1.514   .     S
P3     O10     1.502   .     S
P3     C49     1.825   .     S
P3     O18     1.510   .     S
P4     O8      1.516   1_556 S
P4     O20     1.506   1_455 S
P4     C37     1.843   .     S
P4     O26     1.506   .     S
P5     O11     1.510   .     S
P5     O16     1.500   .     S
P5     C69     1.834   .     S
P5     O17     1.528   .     S
O7     La2     2.614   1_455 S
O7     C36     1.267   1_455 S
O8     P4      1.516   1_554 S
O8     La2     2.662   1_455 S
O9     La2     2.609   1_556 S
O9     C36     1.272   1_556 S
O10    La92    2.421   1_554 S
O12    H13     0.859   .     S
O12    H14     0.859   .     S
O15    C55     1.272   .     S
O17    La2     2.456   1_455 S
O18    La93    2.468   1_554 S
O19    C55     1.273   .     S
O20    P4      1.506   1_655 S
O20    La92    2.431   .     S
O21    H22     0.850   .     S
O21    H23     0.850   .     S
N24    H25     0.980   .     S
N24    C43     1.493   .     S
N24    C66     1.500   .     S
N24    C49     1.495   .     S
O26    La1     2.587   1_556 S
O26    La93    2.470   .     S
C27    H28     0.980   .     S
C27    C31     1.531   .     S
C27    C40     1.525   1_554 S
C27    C118    1.538   1_544 S
N29    H30     0.980   .     S
N29    C46     1.510   1_655 S
N29    C52     1.490   .     S
N29    C37     1.491   1_655 S
C31    H32     0.970   .     S
C31    H33     0.970   .     S
C31    C43     1.497   .     S
N34    H35     0.980   .     S
N34    C74     1.483   .     S
N34    C79     1.505   .     S
N34    C69     1.502   .     S
C36    O7      1.267   1_655 S
C36    O9      1.272   1_554 S
C36    C56     1.480   1_654 S
C37    H38     0.969   .     S
C37    H39     0.970   .     S
C37    N29     1.491   1_455 S
C40    C27     1.525   1_556 S
C40    H41     0.970   .     S
C40    H42     0.971   .     S
C40    C66     1.511   1_556 S
C43    H44     0.970   .     S
C43    H45     0.970   .     S
C46    N29     1.510   1_455 S
C46    H47     0.970   .     S
C46    H48     0.969   .     S
C46    C63     1.533   1_455 S
C49    H50     0.970   .     S
C49    H51     0.970   .     S
C52    H53     0.970   .     S
C52    H54     0.970   .     S
C52    C60     1.499   .     S
C55    C88     1.504   .     S
C56    C36     1.480   1_456 S
C56    H57     0.960   1_556 S
C56    H58     0.960   1_455 S
C56    H59     0.959   .     S
H57    C56     0.960   1_554 S
H58    C56     0.960   1_655 S
C60    H61     0.970   .     S
C60    H62     0.970   .     S
C60    C72     1.543   .     S
C63    C46     1.533   1_655 S
C63    H64     0.970   .     S
C63    H65     0.971   .     S
C63    C72     1.530   .     S
C66    H67     0.970   .     S
C66    H68     0.970   .     S
C66    C40     1.511   1_554 S
C69    H70     0.970   .     S
C69    H71     0.970   .     S
C72    H73     0.980   .     S
C72    C77     1.541   .     S
C74    H75     0.970   .     S
C74    H76     0.970   .     S
C74    C82     1.505   .     S
C77    H78     0.980   .     S
C77    C85     1.525   .     S
C77    C82     1.518   .     S
C79    H80     0.970   .     S
C79    H81     0.970   .     S
C79    C85     1.494   .     S
C82    H83     0.970   .     S
C82    H84     0.970   .     S
C85    H86     0.970   .     S
C85    H87     0.970   .     S
C88    H89     0.960   .     S
C88    H90     0.959   .     S
C88    H91     0.961   .     S
La92   O97     2.507   .     S
La92   O99     2.610   .     S
La92   O103    2.586   .     S
La92   O109    2.741   .     S
La92   O117    2.587   1_556 S
La92   O10     2.421   1_556 S
La92   O102    2.520   .     S
La92   O108    2.654   .     S
La93   O98     2.614   1_455 S
La93   O100    2.609   1_556 S
La93   O106    2.624   .     S
La93   O108    2.456   1_455 S
La93   O110    2.617   .     S
La93   O112    2.567   .     S
La93   O99     2.662   1_455 S
La93   O18     2.468   1_556 S
P94    O97     1.514   .     S
P94    O101    1.502   .     S
P94    C140    1.825   .     S
P94    O109    1.510   .     S
P95    O99     1.516   1_554 S
P95    O111    1.506   1_655 S
P95    C128    1.843   .     S
P95    O117    1.506   .     S
P96    O102    1.510   .     S
P96    O107    1.500   .     S
P96    C160    1.834   .     S
P96    O108    1.528   .     S
O98    La93    2.614   1_655 S
O98    C127    1.267   1_655 S
O99    P95     1.516   1_556 S
O99    La93    2.662   1_655 S
O100   La93    2.609   1_554 S
O100   C127    1.272   1_554 S
O101   La1     2.421   1_556 S
O103   H104    0.859   .     S
O103   H105    0.859   .     S
O106   C146    1.272   .     S
O108   La93    2.456   1_655 S
O109   La2     2.468   1_556 S
O110   C146    1.273   .     S
O111   P95     1.506   1_455 S
O112   H113    0.850   .     S
O112   H114    0.850   .     S
N115   H116    0.980   .     S
N115   C134    1.493   .     S
N115   C157    1.500   .     S
N115   C140    1.495   .     S
O117   La92    2.587   1_554 S
C118   H119    0.980   .     S
C118   C122    1.531   .     S
C118   C131    1.525   1_556 S
C118   C27     1.538   1_566 S
N120   H121    0.980   .     S
N120   C137    1.510   1_455 S
N120   C143    1.490   .     S
N120   C128    1.491   1_455 S
C122   H123    0.970   .     S
C122   H124    0.970   .     S
C122   C134    1.497   .     S
N125   H126    0.980   .     S
N125   C165    1.483   .     S
N125   C170    1.505   .     S
N125   C160    1.502   .     S
C127   O98     1.267   1_455 S
C127   O100    1.272   1_556 S
C127   C147    1.480   1_456 S
C128   H129    0.969   .     S
C128   H130    0.970   .     S
C128   N120    1.491   1_655 S
C131   C118    1.525   1_554 S
C131   H132    0.970   .     S
C131   H133    0.971   .     S
C131   C157    1.511   1_554 S
C134   H135    0.970   .     S
C134   H136    0.970   .     S
C137   N120    1.510   1_655 S
C137   H138    0.970   .     S
C137   H139    0.969   .     S
C137   C154    1.533   1_655 S
C140   H141    0.970   .     S
C140   H142    0.970   .     S
C143   H144    0.970   .     S
C143   H145    0.970   .     S
C143   C151    1.499   .     S
C146   C179    1.504   .     S
C147   C127    1.480   1_654 S
C147   H148    0.960   1_554 S
C147   H149    0.960   1_655 S
C147   H150    0.959   .     S
H148   C147    0.960   1_556 S
H149   C147    0.960   1_455 S
C151   H152    0.970   .     S
C151   H153    0.970   .     S
C151   C163    1.543   .     S
C154   C137    1.533   1_455 S
C154   H155    0.970   .     S
C154   H156    0.971   .     S
C154   C163    1.530   .     S
C157   H158    0.970   .     S
C157   H159    0.970   .     S
C157   C131    1.511   1_556 S
C160   H161    0.970   .     S
C160   H162    0.970   .     S
C163   H164    0.980   .     S
C163   C168    1.541   .     S
C165   H166    0.970   .     S
C165   H167    0.970   .     S
C165   C173    1.505   .     S
C168   H169    0.980   .     S
C168   C176    1.525   .     S
C168   C173    1.518   .     S
C170   H171    0.970   .     S
C170   H172    0.970   .     S
C170   C176    1.494   .     S
C173   H174    0.970   .     S
C173   H175    0.970   .     S
C176   H177    0.970   .     S
C176   H178    0.970   .     S
C179   H180    0.960   .     S
C179   H181    0.959   .     S
C179   H182    0.961   .     S
