data_WUGZUV_FSR
_audit_creation_date              2024-06-11
_audit_creation_method            'Materials Studio'
_symmetry_space_group_name_H-M    'P1'
_symmetry_Int_Tables_number       1
_symmetry_cell_setting            triclinic
loop_
_symmetry_equiv_pos_as_xyz
  x,y,z
_cell_length_a                    11.1182
_cell_length_b                    11.2423
_cell_length_c                    11.6976
_cell_angle_alpha                 65.3100
_cell_angle_beta                  74.8890
_cell_angle_gamma                 72.0670
loop_
_atom_site_label
_atom_site_type_symbol
_atom_site_fract_x
_atom_site_fract_y
_atom_site_fract_z
_atom_site_U_iso_or_equiv
_atom_site_adp_type
_atom_site_occupancy
Zn1    Zn    0.76391   0.97346   0.45231   0.00000  Uiso   1.00
S2     S     0.68466   0.27267   0.83280   0.00000  Uiso   1.00
S3     S     0.57017   0.40151   0.70093   0.00000  Uiso   1.00
O4     O     0.67330   0.03920   0.58990   0.00000  Uiso   1.00
O5     O     0.83840   0.88930   0.67580   0.00000  Uiso   1.00
C6     C     0.72760   0.90650   0.92000   0.00000  Uiso   1.00
H7     H     0.81560   0.86330   0.91010   0.00000  Uiso   1.00
C8     C     0.66260   0.97020   0.81340   0.00000  Uiso   1.00
C9     C     0.66450   0.90640   0.03770   0.00000  Uiso   1.00
H10    H     0.70920   0.86490   0.10870   0.00000  Uiso   1.00
C11    C     0.73260   0.96430   0.68650   0.00000  Uiso   1.00
C12    C     0.53250   0.96840   0.05280   0.00000  Uiso   1.00
C13    C     0.53690   0.03280   0.82590   0.00000  Uiso   1.00
H14    H     0.49480   0.07790   0.75310   0.00000  Uiso   1.00
N15    N     0.05380   0.08790   0.62770   0.00000  Uiso   1.00
C16    C     0.95480   0.16220   0.56420   0.00000  Uiso   1.00
H17    H     0.96420   0.17360   0.47740   0.00000  Uiso   1.00
C18    C     0.84090   0.22230   0.61820   0.00000  Uiso   1.00
H19    H     0.77390   0.27520   0.56920   0.00000  Uiso   1.00
C20    C     0.03650   0.07040   0.75100   0.00000  Uiso   1.00
H21    H     0.10530   0.01750   0.79770   0.00000  Uiso   1.00
C22    C     0.62820   0.55070   0.63550   0.00000  Uiso   1.00
C23    C     0.59560   0.78340   0.50840   0.00000  Uiso   1.00
H24    H     0.54330   0.86250   0.45750   0.00000  Uiso   1.00
C25    C     0.77870   0.67670   0.59890   0.00000  Uiso   1.00
H26    H     0.85820   0.67970   0.61250   0.00000  Uiso   1.00
C27    C     0.55310   0.66720   0.56120   0.00000  Uiso   1.00
H28    H     0.47310   0.66620   0.54710   0.00000  Uiso   1.00
C29    C     0.74270   0.55720   0.65480   0.00000  Uiso   1.00
H30    H     0.79570   0.47950   0.70640   0.00000  Uiso   1.00
N31    N     0.70780   0.79140   0.52500   0.00000  Uiso   1.00
O32    O     0.65920   0.07650   0.31240   0.00000  Uiso   1.00
O33    O     0.77120   0.21330   0.30350   0.00000  Uiso   1.00
C34    C     0.61250   0.30090   0.16540   0.00000  Uiso   1.00
C35    C     0.68780   0.19140   0.26490   0.00000  Uiso   1.00
C36    C     0.55290   0.52170   0.00030   0.00000  Uiso   1.00
C37    C     0.64620   0.41650   0.09560   0.00000  Uiso   1.00
H38    H     0.72150   0.43450   0.10270   0.00000  Uiso   1.00
C39    C     0.50000   0.27630   0.14970   0.00000  Uiso   1.00
H40    H     0.48150   0.19090   0.20140   0.00000  Uiso   1.00
C41    C     0.82450   0.20510   0.74500   0.00000  Uiso   1.00
C42    C     0.92530   0.12470   0.81320   0.00000  Uiso   1.00
H43    H     0.91680   0.10810   0.90120   0.00000  Uiso   1.00
C44    C     0.58340   0.63560   0.93290   0.00000  Uiso   1.00
H45    H     0.65710   0.65660   0.93980   0.00000  Uiso   1.00
Zn46   Zn    0.23609   0.02654   0.54769   0.00000  Uiso   1.00
S47    S     0.31534   0.72733   0.16720   0.00000  Uiso   1.00
S48    S     0.42983   0.59849   0.29907   0.00000  Uiso   1.00
O49    O     0.32670   0.96080   0.41010   0.00000  Uiso   1.00
O50    O     0.16160   0.11070   0.32420   0.00000  Uiso   1.00
C51    C     0.27240   0.09350   0.08000   0.00000  Uiso   1.00
H52    H     0.18440   0.13670   0.08990   0.00000  Uiso   1.00
C53    C     0.33740   0.02980   0.18660   0.00000  Uiso   1.00
C54    C     0.33550   0.09360   0.96230   0.00000  Uiso   1.00
H55    H     0.29080   0.13510   0.89130   0.00000  Uiso   1.00
C56    C     0.26740   0.03570   0.31350   0.00000  Uiso   1.00
C57    C     0.46750   0.03160   0.94720   0.00000  Uiso   1.00
C58    C     0.46310   0.96720   0.17410   0.00000  Uiso   1.00
H59    H     0.50520   0.92210   0.24690   0.00000  Uiso   1.00
N60    N     0.94620   0.91210   0.37230   0.00000  Uiso   1.00
C61    C     0.04520   0.83780   0.43580   0.00000  Uiso   1.00
H62    H     0.03580   0.82640   0.52260   0.00000  Uiso   1.00
C63    C     0.15910   0.77770   0.38180   0.00000  Uiso   1.00
H64    H     0.22610   0.72480   0.43080   0.00000  Uiso   1.00
C65    C     0.96350   0.92960   0.24900   0.00000  Uiso   1.00
H66    H     0.89470   0.98250   0.20230   0.00000  Uiso   1.00
C67    C     0.37180   0.44930   0.36450   0.00000  Uiso   1.00
C68    C     0.40440   0.21660   0.49160   0.00000  Uiso   1.00
H69    H     0.45670   0.13750   0.54250   0.00000  Uiso   1.00
C70    C     0.22130   0.32330   0.40110   0.00000  Uiso   1.00
H71    H     0.14180   0.32030   0.38750   0.00000  Uiso   1.00
C72    C     0.44690   0.33280   0.43880   0.00000  Uiso   1.00
H73    H     0.52690   0.33380   0.45290   0.00000  Uiso   1.00
C74    C     0.25730   0.44280   0.34520   0.00000  Uiso   1.00
H75    H     0.20430   0.52050   0.29360   0.00000  Uiso   1.00
N76    N     0.29220   0.20860   0.47500   0.00000  Uiso   1.00
O77    O     0.34080   0.92350   0.68760   0.00000  Uiso   1.00
O78    O     0.22880   0.78670   0.69650   0.00000  Uiso   1.00
C79    C     0.38750   0.69910   0.83460   0.00000  Uiso   1.00
C80    C     0.31220   0.80860   0.73510   0.00000  Uiso   1.00
C81    C     0.44710   0.47830   0.99970   0.00000  Uiso   1.00
C82    C     0.35380   0.58350   0.90440   0.00000  Uiso   1.00
H83    H     0.27850   0.56550   0.89730   0.00000  Uiso   1.00
C84    C     0.50000   0.72370   0.85030   0.00000  Uiso   1.00
H85    H     0.51850   0.80910   0.79860   0.00000  Uiso   1.00
C86    C     0.17550   0.79490   0.25500   0.00000  Uiso   1.00
C87    C     0.07470   0.87530   0.18680   0.00000  Uiso   1.00
H88    H     0.08320   0.89190   0.09880   0.00000  Uiso   1.00
C89    C     0.41660   0.36440   0.06710   0.00000  Uiso   1.00
H90    H     0.34290   0.34340   0.06020   0.00000  Uiso   1.00
loop_
_geom_bond_atom_site_label_1
_geom_bond_atom_site_label_2
_geom_bond_distance
_geom_bond_site_symmetry_2
_ccdc_geom_bond_type
Zn1    O4      1.960   1_565 S
Zn1    O5      2.645   .     S
Zn1    N31     2.087   .     S
Zn1    O32     1.989   1_565 S
Zn1    O33     2.539   1_565 S
Zn1    N60     2.037   .     S
S2     S3      2.030   .     S
S2     C41     1.772   .     S
S3     C22     1.775   .     S
O4     Zn1     1.960   1_545 S
O4     C11     1.293   1_545 S
O5     C11     1.229   .     S
C6     H7      0.950   .     S
C6     C8      1.413   .     S
C6     C9      1.372   1_556 S
C8     C13     1.358   1_565 S
C8     C11     1.504   .     S
C9     C6      1.372   1_554 S
C9     H10     0.950   .     S
C9     C12     1.417   .     S
C11    O4      1.293   1_565 S
C12    C57     1.403   1_564 S
C12    C58     1.424   .     S
C13    C8      1.358   1_545 S
C13    H14     0.950   .     S
C13    C57     1.424   .     S
N15    C16     1.343   1_455 S
N15    C20     1.341   .     S
N15    Zn46    2.037   .     S
C16    N15     1.343   1_655 S
C16    H17     0.950   .     S
C16    C18     1.368   .     S
C18    H19     0.950   .     S
C18    C41     1.383   .     S
C20    H21     0.951   .     S
C20    C42     1.367   1_455 S
C22    C27     1.386   .     S
C22    C29     1.378   .     S
C23    H24     0.950   .     S
C23    C27     1.366   .     S
C23    N31     1.346   .     S
C25    H26     0.951   .     S
C25    C29     1.361   .     S
C25    N31     1.353   .     S
C27    H28     0.950   .     S
C29    H30     0.950   .     S
O32    Zn1     1.989   1_545 S
O32    C35     1.280   .     S
O33    Zn1     2.539   1_545 S
O33    C35     1.255   .     S
C34    C35     1.499   .     S
C34    C37     1.323   .     S
C34    C39     1.432   .     S
C36    C37     1.570   .     S
C36    C44     1.289   1_554 S
C36    C81     1.408   1_554 S
C37    H38     0.950   .     S
C39    H40     0.949   .     S
C39    C89     1.370   .     S
C41    C42     1.396   .     S
C42    C20     1.367   1_655 S
C42    H43     0.950   .     S
C44    C36     1.289   1_556 S
C44    H45     0.950   .     S
C44    C84     1.370   .     S
Zn46   O49     1.960   1_545 S
Zn46   O50     2.645   .     S
Zn46   N76     2.087   .     S
Zn46   O77     1.989   1_545 S
Zn46   O78     2.539   1_545 S
S47    S48     2.030   .     S
S47    C86     1.772   .     S
S48    C67     1.775   .     S
O49    Zn46    1.960   1_565 S
O49    C56     1.293   1_565 S
O50    C56     1.229   .     S
C51    H52     0.950   .     S
C51    C53     1.413   .     S
C51    C54     1.372   1_554 S
C53    C58     1.358   1_545 S
C53    C56     1.504   .     S
C54    C51     1.372   1_556 S
C54    H55     0.950   .     S
C54    C57     1.417   .     S
C56    O49     1.293   1_545 S
C57    C12     1.403   1_546 S
C58    C53     1.358   1_565 S
C58    H59     0.950   .     S
N60    C61     1.343   1_655 S
N60    C65     1.341   .     S
C61    N60     1.343   1_455 S
C61    H62     0.950   .     S
C61    C63     1.368   .     S
C63    H64     0.950   .     S
C63    C86     1.383   .     S
C65    H66     0.951   .     S
C65    C87     1.367   1_655 S
C67    C72     1.386   .     S
C67    C74     1.378   .     S
C68    H69     0.950   .     S
C68    C72     1.366   .     S
C68    N76     1.346   .     S
C70    H71     0.951   .     S
C70    C74     1.361   .     S
C70    N76     1.353   .     S
C72    H73     0.950   .     S
C74    H75     0.950   .     S
O77    Zn46    1.989   1_565 S
O77    C80     1.280   .     S
O78    Zn46    2.539   1_565 S
O78    C80     1.255   .     S
C79    C80     1.499   .     S
C79    C82     1.323   .     S
C79    C84     1.432   .     S
C81    C82     1.570   .     S
C81    C89     1.289   1_556 S
C81    C36     1.408   1_556 S
C82    H83     0.950   .     S
C84    H85     0.949   .     S
C86    C87     1.396   .     S
C87    C65     1.367   1_455 S
C87    H88     0.950   .     S
C89    C81     1.289   1_554 S
C89    H90     0.950   .     S
