data_WUHBAE_FSR
_audit_creation_date              2024-06-11
_audit_creation_method            'Materials Studio'
_symmetry_space_group_name_H-M    'P1'
_symmetry_Int_Tables_number       1
_symmetry_cell_setting            triclinic
loop_
_symmetry_equiv_pos_as_xyz
  x,y,z
_cell_length_a                    10.4806
_cell_length_b                    21.3120
_cell_length_c                    11.3293
_cell_angle_alpha                 90.0000
_cell_angle_beta                  94.4970
_cell_angle_gamma                 90.0000
loop_
_atom_site_label
_atom_site_type_symbol
_atom_site_fract_x
_atom_site_fract_y
_atom_site_fract_z
_atom_site_U_iso_or_equiv
_atom_site_adp_type
_atom_site_occupancy
S1     S     0.49519   0.22555   0.41029   0.04081  Uani   1.00
H2     H     0.11330   0.02840   0.00280   0.05200  Uiso   1.00
O3     O     0.95328   0.92777   0.14545   0.03642  Uani   1.00
H4     H     0.93900   0.97320   0.36660   0.06000  Uiso   1.00
O5     O     0.87123   0.89741   0.31271   0.05518  Uani   1.00
N6     N     0.21658   0.07184   0.27831   0.03939  Uani   1.00
C7     C     0.78975   0.77016   0.96857   0.03223  Uani   1.00
C8     C     0.82299   0.83676   0.14154   0.03315  Uani   1.00
C9     C     0.74385   0.79659   0.20330   0.03889  Uani   1.00
H10    H     0.72960   0.80540   0.28160   0.04700  Uiso   1.00
C11    C     0.39754   0.13793   0.25616   0.04540  Uani   1.00
H12    H     0.46190   0.15080   0.20960   0.05400  Uiso   1.00
C13    C     0.84299   0.82391   0.02571   0.03422  Uani   1.00
H14    H     0.89250   0.85110   0.98420   0.04100  Uiso   1.00
C15    C     0.38735   0.16400   0.36662   0.03654  Uani   1.00
C16    C     0.68833   0.74516   0.14962   0.03944  Uani   1.00
H17    H     0.63530   0.71980   0.19120   0.04700  Uiso   1.00
C18    C     0.31110   0.09258   0.21592   0.04413  Uani   1.00
H19    H     0.31890   0.07550   0.14130   0.05300  Uiso   1.00
C20    C     0.88646   0.89145   0.20554   0.03526  Uani   1.00
C21    C     0.20890   0.09736   0.38578   0.05407  Uani   1.00
H22    H     0.14450   0.08350   0.43140   0.06500  Uiso   1.00
C23    C     0.29100   0.14288   0.43202   0.05324  Uani   1.00
H24    H     0.28150   0.15930   0.50690   0.06400  Uiso   1.00
S25    S     0.99519   0.72555   0.41029   0.04081  Uani   1.00
H26    H     0.61330   0.52840   0.00280   0.05200  Uiso   1.00
O27    O     0.45328   0.42777   0.14545   0.03642  Uani   1.00
H28    H     0.43900   0.47320   0.36660   0.06000  Uiso   1.00
O29    O     0.37123   0.39741   0.31271   0.05518  Uani   1.00
N30    N     0.71658   0.57184   0.27831   0.03939  Uani   1.00
C31    C     0.28975   0.27016   0.96857   0.03223  Uani   1.00
C32    C     0.32299   0.33676   0.14154   0.03315  Uani   1.00
C33    C     0.24385   0.29659   0.20330   0.03889  Uani   1.00
H34    H     0.22960   0.30540   0.28160   0.04700  Uiso   1.00
C35    C     0.89754   0.63793   0.25616   0.04540  Uani   1.00
H36    H     0.96190   0.65080   0.20960   0.05400  Uiso   1.00
C37    C     0.34299   0.32391   0.02571   0.03422  Uani   1.00
H38    H     0.39250   0.35110   0.98420   0.04100  Uiso   1.00
C39    C     0.88735   0.66400   0.36662   0.03654  Uani   1.00
C40    C     0.18833   0.24516   0.14962   0.03944  Uani   1.00
H41    H     0.13530   0.21980   0.19120   0.04700  Uiso   1.00
C42    C     0.81110   0.59258   0.21592   0.04413  Uani   1.00
H43    H     0.81890   0.57550   0.14130   0.05300  Uiso   1.00
C44    C     0.38646   0.39145   0.20554   0.03526  Uani   1.00
C45    C     0.70890   0.59736   0.38578   0.05407  Uani   1.00
H46    H     0.64450   0.58350   0.43140   0.06500  Uiso   1.00
C47    C     0.79100   0.64288   0.43202   0.05324  Uani   1.00
H48    H     0.78150   0.65930   0.50690   0.06400  Uiso   1.00
S49    S     0.50481   0.22555   0.58971   0.04081  Uani   1.00
H50    H     0.88670   0.02840   0.99720   0.05200  Uiso   1.00
O51    O     0.04672   0.92777   0.85455   0.03642  Uani   1.00
H52    H     0.06100   0.97320   0.63340   0.06000  Uiso   1.00
O53    O     0.12877   0.89741   0.68729   0.05518  Uani   1.00
N54    N     0.78342   0.07184   0.72169   0.03939  Uani   1.00
C55    C     0.21025   0.77016   0.03143   0.03223  Uani   1.00
C56    C     0.17701   0.83676   0.85846   0.03315  Uani   1.00
C57    C     0.25615   0.79659   0.79670   0.03889  Uani   1.00
H58    H     0.27040   0.80540   0.71840   0.04700  Uiso   1.00
C59    C     0.60246   0.13793   0.74384   0.04540  Uani   1.00
H60    H     0.53810   0.15080   0.79040   0.05400  Uiso   1.00
C61    C     0.15701   0.82391   0.97429   0.03422  Uani   1.00
H62    H     0.10750   0.85110   0.01580   0.04100  Uiso   1.00
C63    C     0.61265   0.16400   0.63338   0.03654  Uani   1.00
C64    C     0.31167   0.74516   0.85038   0.03944  Uani   1.00
H65    H     0.36470   0.71980   0.80880   0.04700  Uiso   1.00
C66    C     0.68890   0.09258   0.78408   0.04413  Uani   1.00
H67    H     0.68110   0.07550   0.85870   0.05300  Uiso   1.00
C68    C     0.11354   0.89145   0.79446   0.03526  Uani   1.00
C69    C     0.79110   0.09736   0.61422   0.05407  Uani   1.00
H70    H     0.85550   0.08350   0.56860   0.06500  Uiso   1.00
C71    C     0.70900   0.14288   0.56798   0.05324  Uani   1.00
H72    H     0.71850   0.15930   0.49310   0.06400  Uiso   1.00
S73    S     0.00481   0.72555   0.58971   0.04081  Uani   1.00
H74    H     0.38670   0.52840   0.99720   0.05200  Uiso   1.00
O75    O     0.54672   0.42777   0.85455   0.03642  Uani   1.00
H76    H     0.56100   0.47320   0.63340   0.06000  Uiso   1.00
O77    O     0.62877   0.39741   0.68729   0.05518  Uani   1.00
N78    N     0.28342   0.57184   0.72169   0.03939  Uani   1.00
C79    C     0.71025   0.27016   0.03143   0.03223  Uani   1.00
C80    C     0.67701   0.33676   0.85846   0.03315  Uani   1.00
C81    C     0.75615   0.29659   0.79670   0.03889  Uani   1.00
H82    H     0.77040   0.30540   0.71840   0.04700  Uiso   1.00
C83    C     0.10246   0.63793   0.74384   0.04540  Uani   1.00
H84    H     0.03810   0.65080   0.79040   0.05400  Uiso   1.00
C85    C     0.65701   0.32391   0.97429   0.03422  Uani   1.00
H86    H     0.60750   0.35110   0.01580   0.04100  Uiso   1.00
C87    C     0.11265   0.66400   0.63338   0.03654  Uani   1.00
C88    C     0.81167   0.24516   0.85038   0.03944  Uani   1.00
H89    H     0.86470   0.21980   0.80880   0.04700  Uiso   1.00
C90    C     0.18890   0.59258   0.78408   0.04413  Uani   1.00
H91    H     0.18110   0.57550   0.85870   0.05300  Uiso   1.00
C92    C     0.61354   0.39145   0.79446   0.03526  Uani   1.00
C93    C     0.29110   0.59736   0.61422   0.05407  Uani   1.00
H94    H     0.35550   0.58350   0.56860   0.06500  Uiso   1.00
C95    C     0.20900   0.64288   0.56798   0.05324  Uani   1.00
H96    H     0.21850   0.65930   0.49310   0.06400  Uiso   1.00
S97    S     0.50481   0.77445   0.58971   0.04081  Uani   1.00
H98    H     0.88670   0.97160   0.99720   0.05200  Uiso   1.00
O99    O     0.04672   0.07223   0.85455   0.03642  Uani   1.00
H100   H     0.06100   0.02680   0.63340   0.06000  Uiso   1.00
O101   O     0.12877   0.10259   0.68729   0.05518  Uani   1.00
N102   N     0.78342   0.92816   0.72169   0.03939  Uani   1.00
C103   C     0.21025   0.22984   0.03143   0.03223  Uani   1.00
C104   C     0.17701   0.16324   0.85846   0.03315  Uani   1.00
C105   C     0.25615   0.20341   0.79670   0.03889  Uani   1.00
H106   H     0.27040   0.19460   0.71840   0.04700  Uiso   1.00
C107   C     0.60246   0.86207   0.74384   0.04540  Uani   1.00
H108   H     0.53810   0.84920   0.79040   0.05400  Uiso   1.00
C109   C     0.15701   0.17609   0.97429   0.03422  Uani   1.00
H110   H     0.10750   0.14890   0.01580   0.04100  Uiso   1.00
C111   C     0.61265   0.83600   0.63338   0.03654  Uani   1.00
C112   C     0.31167   0.25484   0.85038   0.03944  Uani   1.00
H113   H     0.36470   0.28020   0.80880   0.04700  Uiso   1.00
C114   C     0.68890   0.90742   0.78408   0.04413  Uani   1.00
H115   H     0.68110   0.92450   0.85870   0.05300  Uiso   1.00
C116   C     0.11354   0.10855   0.79446   0.03526  Uani   1.00
C117   C     0.79110   0.90264   0.61422   0.05407  Uani   1.00
H118   H     0.85550   0.91650   0.56860   0.06500  Uiso   1.00
C119   C     0.70900   0.85712   0.56798   0.05324  Uani   1.00
H120   H     0.71850   0.84070   0.49310   0.06400  Uiso   1.00
S121   S     0.00481   0.27445   0.58971   0.04081  Uani   1.00
H122   H     0.38670   0.47160   0.99720   0.05200  Uiso   1.00
O123   O     0.54672   0.57223   0.85455   0.03642  Uani   1.00
H124   H     0.56100   0.52680   0.63340   0.06000  Uiso   1.00
O125   O     0.62877   0.60259   0.68729   0.05518  Uani   1.00
N126   N     0.28342   0.42816   0.72169   0.03939  Uani   1.00
C127   C     0.71025   0.72984   0.03143   0.03223  Uani   1.00
C128   C     0.67701   0.66324   0.85846   0.03315  Uani   1.00
C129   C     0.75615   0.70341   0.79670   0.03889  Uani   1.00
H130   H     0.77040   0.69460   0.71840   0.04700  Uiso   1.00
C131   C     0.10246   0.36207   0.74384   0.04540  Uani   1.00
H132   H     0.03810   0.34920   0.79040   0.05400  Uiso   1.00
C133   C     0.65701   0.67609   0.97429   0.03422  Uani   1.00
H134   H     0.60750   0.64890   0.01580   0.04100  Uiso   1.00
C135   C     0.11265   0.33600   0.63338   0.03654  Uani   1.00
C136   C     0.81167   0.75484   0.85038   0.03944  Uani   1.00
H137   H     0.86470   0.78020   0.80880   0.04700  Uiso   1.00
C138   C     0.18890   0.40742   0.78408   0.04413  Uani   1.00
H139   H     0.18110   0.42450   0.85870   0.05300  Uiso   1.00
C140   C     0.61354   0.60855   0.79446   0.03526  Uani   1.00
C141   C     0.29110   0.40264   0.61422   0.05407  Uani   1.00
H142   H     0.35550   0.41650   0.56860   0.06500  Uiso   1.00
C143   C     0.20900   0.35712   0.56798   0.05324  Uani   1.00
H144   H     0.21850   0.34070   0.49310   0.06400  Uiso   1.00
S145   S     0.49519   0.77445   0.41029   0.04081  Uani   1.00
H146   H     0.11330   0.97160   0.00280   0.05200  Uiso   1.00
O147   O     0.95328   0.07223   0.14545   0.03642  Uani   1.00
H148   H     0.93900   0.02680   0.36660   0.06000  Uiso   1.00
O149   O     0.87123   0.10259   0.31271   0.05518  Uani   1.00
N150   N     0.21658   0.92816   0.27831   0.03939  Uani   1.00
C151   C     0.78975   0.22984   0.96857   0.03223  Uani   1.00
C152   C     0.82299   0.16324   0.14154   0.03315  Uani   1.00
C153   C     0.74385   0.20341   0.20330   0.03889  Uani   1.00
H154   H     0.72960   0.19460   0.28160   0.04700  Uiso   1.00
C155   C     0.39754   0.86207   0.25616   0.04540  Uani   1.00
H156   H     0.46190   0.84920   0.20960   0.05400  Uiso   1.00
C157   C     0.84299   0.17609   0.02571   0.03422  Uani   1.00
H158   H     0.89250   0.14890   0.98420   0.04100  Uiso   1.00
C159   C     0.38735   0.83600   0.36662   0.03654  Uani   1.00
C160   C     0.68833   0.25484   0.14962   0.03944  Uani   1.00
H161   H     0.63530   0.28020   0.19120   0.04700  Uiso   1.00
C162   C     0.31110   0.90742   0.21592   0.04413  Uani   1.00
H163   H     0.31890   0.92450   0.14130   0.05300  Uiso   1.00
C164   C     0.88646   0.10855   0.20554   0.03526  Uani   1.00
C165   C     0.20890   0.90264   0.38578   0.05407  Uani   1.00
H166   H     0.14450   0.91650   0.43140   0.06500  Uiso   1.00
C167   C     0.29100   0.85712   0.43202   0.05324  Uani   1.00
H168   H     0.28150   0.84070   0.50690   0.06400  Uiso   1.00
S169   S     0.99519   0.27445   0.41029   0.04081  Uani   1.00
H170   H     0.61330   0.47160   0.00280   0.05200  Uiso   1.00
O171   O     0.45328   0.57223   0.14545   0.03642  Uani   1.00
H172   H     0.43900   0.52680   0.36660   0.06000  Uiso   1.00
O173   O     0.37123   0.60259   0.31271   0.05518  Uani   1.00
N174   N     0.71658   0.42816   0.27831   0.03939  Uani   1.00
C175   C     0.28975   0.72984   0.96857   0.03223  Uani   1.00
C176   C     0.32299   0.66324   0.14154   0.03315  Uani   1.00
C177   C     0.24385   0.70341   0.20330   0.03889  Uani   1.00
H178   H     0.22960   0.69460   0.28160   0.04700  Uiso   1.00
C179   C     0.89754   0.36207   0.25616   0.04540  Uani   1.00
H180   H     0.96190   0.34920   0.20960   0.05400  Uiso   1.00
C181   C     0.34299   0.67609   0.02571   0.03422  Uani   1.00
H182   H     0.39250   0.64890   0.98420   0.04100  Uiso   1.00
C183   C     0.88735   0.33600   0.36662   0.03654  Uani   1.00
C184   C     0.18833   0.75484   0.14962   0.03944  Uani   1.00
H185   H     0.13530   0.78020   0.19120   0.04700  Uiso   1.00
C186   C     0.81110   0.40742   0.21592   0.04413  Uani   1.00
H187   H     0.81890   0.42450   0.14130   0.05300  Uiso   1.00
C188   C     0.38646   0.60855   0.20554   0.03526  Uani   1.00
C189   C     0.70890   0.40264   0.38578   0.05407  Uani   1.00
H190   H     0.64450   0.41650   0.43140   0.06500  Uiso   1.00
C191   C     0.79100   0.35712   0.43202   0.05324  Uani   1.00
H192   H     0.78150   0.34070   0.50690   0.06400  Uiso   1.00
Co193  Co    0.08125  -0.00000   0.21301   0.03013  Uani   1.00
O194   O     0.14812  -0.00000   0.04218   0.03459  Uani   1.00
O195   O     0.99517  -0.00000   0.36918   0.03994  Uani   1.00
Co196  Co    0.58125   0.50000   0.21301   0.03013  Uani   1.00
O197   O     0.64812   0.50000   0.04218   0.03459  Uani   1.00
O198   O     0.49517   0.50000   0.36918   0.03994  Uani   1.00
Co199  Co    0.91875  -0.00000   0.78699   0.03013  Uani   1.00
O200   O     0.85188  -0.00000   0.95782   0.03459  Uani   1.00
O201   O     0.00483  -0.00000   0.63082   0.03994  Uani   1.00
Co202  Co    0.41875   0.50000   0.78699   0.03013  Uani   1.00
O203   O     0.35188   0.50000   0.95782   0.03459  Uani   1.00
O204   O     0.50483   0.50000   0.63082   0.03994  Uani   1.00
loop_
_atom_site_aniso_label
_atom_site_aniso_U_11
_atom_site_aniso_U_22
_atom_site_aniso_U_33
_atom_site_aniso_U_12
_atom_site_aniso_U_13
_atom_site_aniso_U_23
S1        0.04420   0.04030   0.03670  -0.00630  -0.00467   0.00494
O3        0.04620   0.03490   0.02810  -0.00890   0.00250   0.00080
O5        0.08490   0.04880   0.03370  -0.02310   0.01640  -0.00550
N6        0.04320   0.04340   0.03090  -0.00400  -0.00140  -0.00280
C7        0.03330   0.03290   0.03090  -0.00220   0.00510   0.00230
C8        0.03660   0.03080   0.03210  -0.00040   0.00310   0.00170
C9        0.04630   0.04090   0.03060  -0.00580   0.01010  -0.00190
C11       0.04530   0.05270   0.03890  -0.00640   0.00770  -0.00370
C13       0.03660   0.03360   0.03300  -0.00460   0.00610   0.00320
C15       0.03710   0.03800   0.03330   0.00050  -0.00500   0.00170
C16       0.04560   0.04050   0.03380  -0.00990   0.01310   0.00150
C18       0.04750   0.04960   0.03550  -0.00390   0.00460  -0.00790
C20       0.04260   0.03120   0.03210  -0.00030   0.00370   0.00220
C21       0.05690   0.06990   0.03620  -0.02280   0.00870  -0.01000
C23       0.05760   0.06890   0.03380  -0.02030   0.00720  -0.01430
S25       0.04420   0.04030   0.03670  -0.00630  -0.00467   0.00494
O27       0.04620   0.03490   0.02810  -0.00890   0.00250   0.00080
O29       0.08490   0.04880   0.03370  -0.02310   0.01640  -0.00550
N30       0.04320   0.04340   0.03090  -0.00400  -0.00140  -0.00280
C31       0.03330   0.03290   0.03090  -0.00220   0.00510   0.00230
C32       0.03660   0.03080   0.03210  -0.00040   0.00310   0.00170
C33       0.04630   0.04090   0.03060  -0.00580   0.01010  -0.00190
C35       0.04530   0.05270   0.03890  -0.00640   0.00770  -0.00370
C37       0.03660   0.03360   0.03300  -0.00460   0.00610   0.00320
C39       0.03710   0.03800   0.03330   0.00050  -0.00500   0.00170
C40       0.04560   0.04050   0.03380  -0.00990   0.01310   0.00150
C42       0.04750   0.04960   0.03550  -0.00390   0.00460  -0.00790
C44       0.04260   0.03120   0.03210  -0.00030   0.00370   0.00220
C45       0.05690   0.06990   0.03620  -0.02280   0.00870  -0.01000
C47       0.05760   0.06890   0.03380  -0.02030   0.00720  -0.01430
S49       0.04420   0.04030   0.03670   0.00630  -0.00467  -0.00494
O51       0.04620   0.03490   0.02810   0.00890   0.00250  -0.00080
O53       0.08490   0.04880   0.03370   0.02310   0.01640   0.00550
N54       0.04320   0.04340   0.03090   0.00400  -0.00140   0.00280
C55       0.03330   0.03290   0.03090   0.00220   0.00510  -0.00230
C56       0.03660   0.03080   0.03210   0.00040   0.00310  -0.00170
C57       0.04630   0.04090   0.03060   0.00580   0.01010   0.00190
C59       0.04530   0.05270   0.03890   0.00640   0.00770   0.00370
C61       0.03660   0.03360   0.03300   0.00460   0.00610  -0.00320
C63       0.03710   0.03800   0.03330  -0.00050  -0.00500  -0.00170
C64       0.04560   0.04050   0.03380   0.00990   0.01310  -0.00150
C66       0.04750   0.04960   0.03550   0.00390   0.00460   0.00790
C68       0.04260   0.03120   0.03210   0.00030   0.00370  -0.00220
C69       0.05690   0.06990   0.03620   0.02280   0.00870   0.01000
C71       0.05760   0.06890   0.03380   0.02030   0.00720   0.01430
S73       0.04420   0.04030   0.03670   0.00630  -0.00467  -0.00494
O75       0.04620   0.03490   0.02810   0.00890   0.00250  -0.00080
O77       0.08490   0.04880   0.03370   0.02310   0.01640   0.00550
N78       0.04320   0.04340   0.03090   0.00400  -0.00140   0.00280
C79       0.03330   0.03290   0.03090   0.00220   0.00510  -0.00230
C80       0.03660   0.03080   0.03210   0.00040   0.00310  -0.00170
C81       0.04630   0.04090   0.03060   0.00580   0.01010   0.00190
C83       0.04530   0.05270   0.03890   0.00640   0.00770   0.00370
C85       0.03660   0.03360   0.03300   0.00460   0.00610  -0.00320
C87       0.03710   0.03800   0.03330  -0.00050  -0.00500  -0.00170
C88       0.04560   0.04050   0.03380   0.00990   0.01310  -0.00150
C90       0.04750   0.04960   0.03550   0.00390   0.00460   0.00790
C92       0.04260   0.03120   0.03210   0.00030   0.00370  -0.00220
C93       0.05690   0.06990   0.03620   0.02280   0.00870   0.01000
C95       0.05760   0.06890   0.03380   0.02030   0.00720   0.01430
S97       0.04420   0.04030   0.03670  -0.00630  -0.00467   0.00494
O99       0.04620   0.03490   0.02810  -0.00890   0.00250   0.00080
O101      0.08490   0.04880   0.03370  -0.02310   0.01640  -0.00550
N102      0.04320   0.04340   0.03090  -0.00400  -0.00140  -0.00280
C103      0.03330   0.03290   0.03090  -0.00220   0.00510   0.00230
C104      0.03660   0.03080   0.03210  -0.00040   0.00310   0.00170
C105      0.04630   0.04090   0.03060  -0.00580   0.01010  -0.00190
C107      0.04530   0.05270   0.03890  -0.00640   0.00770  -0.00370
C109      0.03660   0.03360   0.03300  -0.00460   0.00610   0.00320
C111      0.03710   0.03800   0.03330   0.00050  -0.00500   0.00170
C112      0.04560   0.04050   0.03380  -0.00990   0.01310   0.00150
C114      0.04750   0.04960   0.03550  -0.00390   0.00460  -0.00790
C116      0.04260   0.03120   0.03210  -0.00030   0.00370   0.00220
C117      0.05690   0.06990   0.03620  -0.02280   0.00870  -0.01000
C119      0.05760   0.06890   0.03380  -0.02030   0.00720  -0.01430
S121      0.04420   0.04030   0.03670  -0.00630  -0.00467   0.00494
O123      0.04620   0.03490   0.02810  -0.00890   0.00250   0.00080
O125      0.08490   0.04880   0.03370  -0.02310   0.01640  -0.00550
N126      0.04320   0.04340   0.03090  -0.00400  -0.00140  -0.00280
C127      0.03330   0.03290   0.03090  -0.00220   0.00510   0.00230
C128      0.03660   0.03080   0.03210  -0.00040   0.00310   0.00170
C129      0.04630   0.04090   0.03060  -0.00580   0.01010  -0.00190
C131      0.04530   0.05270   0.03890  -0.00640   0.00770  -0.00370
C133      0.03660   0.03360   0.03300  -0.00460   0.00610   0.00320
C135      0.03710   0.03800   0.03330   0.00050  -0.00500   0.00170
C136      0.04560   0.04050   0.03380  -0.00990   0.01310   0.00150
C138      0.04750   0.04960   0.03550  -0.00390   0.00460  -0.00790
C140      0.04260   0.03120   0.03210  -0.00030   0.00370   0.00220
C141      0.05690   0.06990   0.03620  -0.02280   0.00870  -0.01000
C143      0.05760   0.06890   0.03380  -0.02030   0.00720  -0.01430
S145      0.04420   0.04030   0.03670   0.00630  -0.00467  -0.00494
O147      0.04620   0.03490   0.02810   0.00890   0.00250  -0.00080
O149      0.08490   0.04880   0.03370   0.02310   0.01640   0.00550
N150      0.04320   0.04340   0.03090   0.00400  -0.00140   0.00280
C151      0.03330   0.03290   0.03090   0.00220   0.00510  -0.00230
C152      0.03660   0.03080   0.03210   0.00040   0.00310  -0.00170
C153      0.04630   0.04090   0.03060   0.00580   0.01010   0.00190
C155      0.04530   0.05270   0.03890   0.00640   0.00770   0.00370
C157      0.03660   0.03360   0.03300   0.00460   0.00610  -0.00320
C159      0.03710   0.03800   0.03330  -0.00050  -0.00500  -0.00170
C160      0.04560   0.04050   0.03380   0.00990   0.01310  -0.00150
C162      0.04750   0.04960   0.03550   0.00390   0.00460   0.00790
C164      0.04260   0.03120   0.03210   0.00030   0.00370  -0.00220
C165      0.05690   0.06990   0.03620   0.02280   0.00870   0.01000
C167      0.05760   0.06890   0.03380   0.02030   0.00720   0.01430
S169      0.04420   0.04030   0.03670   0.00630  -0.00467  -0.00494
O171      0.04620   0.03490   0.02810   0.00890   0.00250  -0.00080
O173      0.08490   0.04880   0.03370   0.02310   0.01640   0.00550
N174      0.04320   0.04340   0.03090   0.00400  -0.00140   0.00280
C175      0.03330   0.03290   0.03090   0.00220   0.00510  -0.00230
C176      0.03660   0.03080   0.03210   0.00040   0.00310  -0.00170
C177      0.04630   0.04090   0.03060   0.00580   0.01010   0.00190
C179      0.04530   0.05270   0.03890   0.00640   0.00770   0.00370
C181      0.03660   0.03360   0.03300   0.00460   0.00610  -0.00320
C183      0.03710   0.03800   0.03330  -0.00050  -0.00500  -0.00170
C184      0.04560   0.04050   0.03380   0.00990   0.01310  -0.00150
C186      0.04750   0.04960   0.03550   0.00390   0.00460   0.00790
C188      0.04260   0.03120   0.03210   0.00030   0.00370  -0.00220
C189      0.05690   0.06990   0.03620   0.02280   0.00870   0.01000
C191      0.05760   0.06890   0.03380   0.02030   0.00720   0.01430
Co193     0.03680   0.03138   0.02193   0.00000   0.00057   0.00000
O194      0.04140   0.03890   0.02330   0.00000   0.00150   0.00000
O195      0.04870   0.04520   0.02600   0.00000   0.00350   0.00000
Co196     0.03680   0.03138   0.02193   0.00000   0.00057   0.00000
O197      0.04140   0.03890   0.02330   0.00000   0.00150   0.00000
O198      0.04870   0.04520   0.02600   0.00000   0.00350   0.00000
Co199     0.03680   0.03138   0.02193   0.00000   0.00057   0.00000
O200      0.04140   0.03890   0.02330   0.00000   0.00150   0.00000
O201      0.04870   0.04520   0.02600   0.00000   0.00350   0.00000
Co202     0.03680   0.03138   0.02193   0.00000   0.00057   0.00000
O203      0.04140   0.03890   0.02330   0.00000   0.00150   0.00000
O204      0.04870   0.04520   0.02600   0.00000   0.00350   0.00000
loop_
_geom_bond_atom_site_label_1
_geom_bond_atom_site_label_2
_geom_bond_distance
_geom_bond_site_symmetry_2
_ccdc_geom_bond_type
S1     C15     1.776   .     S
S1     S49     2.027   .     S
H2     O194    0.820   .     S
O3     Co193   2.143   1_665 S
O3     C20     1.276   .     S
H4     O195    0.819   1_565 S
O5     C20     1.243   .     S
N6     Co193   2.177   .     S
N6     C18     1.336   .     S
N6     C21     1.342   .     S
C7     C13     1.409   1_556 S
C7     C127    1.426   1_556 S
C7     C136    1.414   .     S
C8     C9      1.415   .     S
C8     C13     1.373   .     S
C8     C20     1.500   .     S
C9     H10     0.930   .     S
C9     C16     1.362   .     S
C11    H12     0.930   .     S
C11    C15     1.381   .     S
C11    C18     1.378   .     S
C13    C7      1.409   1_554 S
C13    H14     0.930   1_554 S
H14    C13     0.930   1_556 S
C15    C23     1.374   .     S
C16    H17     0.930   .     S
C16    C127    1.414   .     S
C18    H19     0.930   .     S
C21    H22     0.930   .     S
C21    C23     1.373   .     S
C23    H24     0.930   .     S
S25    C39     1.776   .     S
S25    S73     2.027   1_655 S
H26    O197    0.820   .     S
O27    Co196   2.143   .     S
O27    C44     1.276   .     S
H28    O198    0.819   .     S
O29    C44     1.243   .     S
N30    Co196   2.177   .     S
N30    C42     1.336   .     S
N30    C45     1.342   .     S
C31    C37     1.409   1_556 S
C31    C103    1.426   1_556 S
C31    C112    1.414   .     S
C32    C33     1.415   .     S
C32    C37     1.373   .     S
C32    C44     1.500   .     S
C33    H34     0.930   .     S
C33    C40     1.362   .     S
C35    H36     0.930   .     S
C35    C39     1.381   .     S
C35    C42     1.378   .     S
C37    C31     1.409   1_554 S
C37    H38     0.930   1_554 S
H38    C37     0.930   1_556 S
C39    C47     1.374   .     S
C40    H41     0.930   .     S
C40    C103    1.414   .     S
C42    H43     0.930   .     S
C45    H46     0.930   .     S
C45    C47     1.373   .     S
C47    H48     0.930   .     S
S49    C63     1.776   .     S
H50    O200    0.820   .     S
O51    Co199   2.143   1_465 S
O51    C68     1.276   .     S
H52    O201    0.819   1_565 S
O53    C68     1.243   .     S
N54    Co199   2.177   .     S
N54    C66     1.336   .     S
N54    C69     1.342   .     S
C55    C61     1.409   1_554 S
C55    C175    1.426   1_554 S
C55    C184    1.414   .     S
C56    C57     1.415   .     S
C56    C61     1.373   .     S
C56    C68     1.500   .     S
C57    H58     0.930   .     S
C57    C64     1.362   .     S
C59    H60     0.930   .     S
C59    C63     1.381   .     S
C59    C66     1.378   .     S
C61    C55     1.409   1_556 S
C61    H62     0.930   1_556 S
H62    C61     0.930   1_554 S
C63    C71     1.374   .     S
C64    H65     0.930   .     S
C64    C175    1.414   .     S
C66    H67     0.930   .     S
C69    H70     0.930   .     S
C69    C71     1.373   .     S
C71    H72     0.930   .     S
S73    C87     1.776   .     S
S73    S25     2.027   1_455 S
H74    O203    0.820   .     S
O75    Co202   2.143   .     S
O75    C92     1.276   .     S
H76    O204    0.819   .     S
O77    C92     1.243   .     S
N78    Co202   2.177   .     S
N78    C90     1.336   .     S
N78    C93     1.342   .     S
C79    C85     1.409   1_554 S
C79    C151    1.426   1_554 S
C79    C160    1.414   .     S
C80    C81     1.415   .     S
C80    C85     1.373   .     S
C80    C92     1.500   .     S
C81    H82     0.930   .     S
C81    C88     1.362   .     S
C83    H84     0.930   .     S
C83    C87     1.381   .     S
C83    C90     1.378   .     S
C85    C79     1.409   1_556 S
C85    H86     0.930   1_556 S
H86    C85     0.930   1_554 S
C87    C95     1.374   .     S
C88    H89     0.930   .     S
C88    C151    1.414   .     S
C90    H91     0.930   .     S
C93    H94     0.930   .     S
C93    C95     1.373   .     S
C95    H96     0.930   .     S
S97    C111    1.776   .     S
S97    S145    2.027   .     S
H98    O200    0.820   1_565 S
O99    Co199   2.143   1_455 S
O99    C116    1.276   .     S
H100   O201    0.819   .     S
O101   C116    1.243   .     S
N102   Co199   2.177   1_565 S
N102   C114    1.336   .     S
N102   C117    1.342   .     S
C103   C109    1.409   1_554 S
C103   C31     1.426   1_554 S
C104   C105    1.415   .     S
C104   C109    1.373   .     S
C104   C116    1.500   .     S
C105   H106    0.930   .     S
C105   C112    1.362   .     S
C107   H108    0.930   .     S
C107   C111    1.381   .     S
C107   C114    1.378   .     S
C109   C103    1.409   1_556 S
C109   H110    0.930   1_556 S
H110   C109    0.930   1_554 S
C111   C119    1.374   .     S
C112   H113    0.930   .     S
C114   H115    0.930   .     S
C117   H118    0.930   .     S
C117   C119    1.373   .     S
C119   H120    0.930   .     S
S121   C135    1.776   .     S
S121   S169    2.027   1_455 S
H122   O203    0.820   .     S
O123   Co202   2.143   .     S
O123   C140    1.276   .     S
H124   O204    0.819   .     S
O125   C140    1.243   .     S
N126   Co202   2.177   .     S
N126   C138    1.336   .     S
N126   C141    1.342   .     S
C127   C133    1.409   1_554 S
C127   C7      1.426   1_554 S
C128   C129    1.415   .     S
C128   C133    1.373   .     S
C128   C140    1.500   .     S
C129   H130    0.930   .     S
C129   C136    1.362   .     S
C131   H132    0.930   .     S
C131   C135    1.381   .     S
C131   C138    1.378   .     S
C133   C127    1.409   1_556 S
C133   H134    0.930   1_556 S
H134   C133    0.930   1_554 S
C135   C143    1.374   .     S
C136   H137    0.930   .     S
C138   H139    0.930   .     S
C141   H142    0.930   .     S
C141   C143    1.373   .     S
C143   H144    0.930   .     S
S145   C159    1.776   .     S
H146   O194    0.820   1_565 S
O147   Co193   2.143   1_655 S
O147   C164    1.276   .     S
H148   O195    0.819   .     S
O149   C164    1.243   .     S
N150   Co193   2.177   1_565 S
N150   C162    1.336   .     S
N150   C165    1.342   .     S
C151   C157    1.409   1_556 S
C151   C79     1.426   1_556 S
C152   C153    1.415   .     S
C152   C157    1.373   .     S
C152   C164    1.500   .     S
C153   H154    0.930   .     S
C153   C160    1.362   .     S
C155   H156    0.930   .     S
C155   C159    1.381   .     S
C155   C162    1.378   .     S
C157   C151    1.409   1_554 S
C157   H158    0.930   1_554 S
H158   C157    0.930   1_556 S
C159   C167    1.374   .     S
C160   H161    0.930   .     S
C162   H163    0.930   .     S
C165   H166    0.930   .     S
C165   C167    1.373   .     S
C167   H168    0.930   .     S
S169   C183    1.776   .     S
S169   S121    2.027   1_655 S
H170   O197    0.820   .     S
O171   Co196   2.143   .     S
O171   C188    1.276   .     S
H172   O198    0.819   .     S
O173   C188    1.243   .     S
N174   Co196   2.177   .     S
N174   C186    1.336   .     S
N174   C189    1.342   .     S
C175   C181    1.409   1_556 S
C175   C55     1.426   1_556 S
C176   C177    1.415   .     S
C176   C181    1.373   .     S
C176   C188    1.500   .     S
C177   H178    0.930   .     S
C177   C184    1.362   .     S
C179   H180    0.930   .     S
C179   C183    1.381   .     S
C179   C186    1.378   .     S
C181   C175    1.409   1_554 S
C181   H182    0.930   1_554 S
H182   C181    0.930   1_556 S
C183   C191    1.374   .     S
C184   H185    0.930   .     S
C186   H187    0.930   .     S
C189   H190    0.930   .     S
C189   C191    1.373   .     S
C191   H192    0.930   .     S
Co193  O194    2.109   .     S
Co193  O3      2.143   1_445 S
Co193  O147    2.143   1_455 S
Co193  O195    2.048   1_455 S
Co193  N150    2.177   1_545 S
O194   H146    0.820   1_545 S
O195   Co193   2.048   1_655 S
O195   H4      0.819   1_545 S
Co196  O197    2.109   .     S
Co196  O198    2.048   .     S
Co199  O200    2.109   .     S
Co199  O51     2.143   1_645 S
Co199  O99     2.143   1_655 S
Co199  O201    2.048   1_655 S
Co199  N102    2.177   1_545 S
O200   H98     0.820   1_545 S
O201   Co199   2.048   1_455 S
O201   H52     0.819   1_545 S
Co202  O203    2.109   .     S
Co202  O204    2.048   .     S
