data_WUTBEU_FSR
_audit_creation_date              2024-06-11
_audit_creation_method            'Materials Studio'
_symmetry_space_group_name_H-M    'P1'
_symmetry_Int_Tables_number       1
_symmetry_cell_setting            triclinic
loop_
_symmetry_equiv_pos_as_xyz
  x,y,z
_cell_length_a                    15.6152
_cell_length_b                    15.6152
_cell_length_c                    7.4963
_cell_angle_alpha                 90.0000
_cell_angle_beta                  90.0000
_cell_angle_gamma                 90.0000
loop_
_atom_site_label
_atom_site_type_symbol
_atom_site_fract_x
_atom_site_fract_y
_atom_site_fract_z
_atom_site_U_iso_or_equiv
_atom_site_adp_type
_atom_site_occupancy
Zr1    Zr    0.00000   0.00000   0.25000   0.00000  Uiso   1.00
Zr2    Zr    0.00000   0.00000   0.75000   0.00000  Uiso   1.00
N3     N     0.45773   0.00000   0.15250   0.00000  Uiso   1.00
C4     C     0.27682   0.00000   0.16058   0.00000  Uiso   1.00
C5     C     0.18780   0.00000   0.16058   0.00000  Uiso   1.00
H6     H     0.30660   0.00000   0.26802   0.00000  Uiso   1.00
O7     O     0.14618   0.00000   0.31077   0.00000  Uiso   1.00
N8     N     0.54227   0.00000   0.15250   0.00000  Uiso   1.00
C9     C     0.72318   0.00000   0.16058   0.00000  Uiso   1.00
C10    C     0.81220   0.00000   0.16058   0.00000  Uiso   1.00
H11    H     0.69340   0.00000   0.26802   0.00000  Uiso   1.00
O12    O     0.85382   0.00000   0.31077   0.00000  Uiso   1.00
N13    N     0.00000   0.45773   0.65250   0.00000  Uiso   1.00
C14    C     0.00000   0.27682   0.66058   0.00000  Uiso   1.00
C15    C     0.00000   0.18780   0.66058   0.00000  Uiso   1.00
H16    H     0.00000   0.30660   0.76802   0.00000  Uiso   1.00
O17    O     0.00000   0.14618   0.81077   0.00000  Uiso   1.00
N18    N     0.00000   0.54227   0.65250   0.00000  Uiso   1.00
C19    C     0.00000   0.72318   0.66058   0.00000  Uiso   1.00
C20    C     0.00000   0.81220   0.66058   0.00000  Uiso   1.00
H21    H     0.00000   0.69340   0.76802   0.00000  Uiso   1.00
O22    O     0.00000   0.85382   0.81077   0.00000  Uiso   1.00
N23    N     0.54227   0.00000   0.84750   0.00000  Uiso   1.00
C24    C     0.72318   0.00000   0.83942   0.00000  Uiso   1.00
C25    C     0.81220   0.00000   0.83942   0.00000  Uiso   1.00
H26    H     0.69340   0.00000   0.73198   0.00000  Uiso   1.00
O27    O     0.85382   0.00000   0.68923   0.00000  Uiso   1.00
N28    N     0.45773   0.00000   0.84750   0.00000  Uiso   1.00
C29    C     0.27682   0.00000   0.83942   0.00000  Uiso   1.00
C30    C     0.18780   0.00000   0.83942   0.00000  Uiso   1.00
H31    H     0.30660   0.00000   0.73198   0.00000  Uiso   1.00
O32    O     0.14618   0.00000   0.68923   0.00000  Uiso   1.00
N33    N     0.00000   0.45773   0.34750   0.00000  Uiso   1.00
C34    C     0.00000   0.27682   0.33942   0.00000  Uiso   1.00
C35    C     0.00000   0.18780   0.33942   0.00000  Uiso   1.00
H36    H     0.00000   0.30660   0.23198   0.00000  Uiso   1.00
O37    O     0.00000   0.14618   0.18923   0.00000  Uiso   1.00
N38    N     0.00000   0.54227   0.34750   0.00000  Uiso   1.00
C39    C     0.00000   0.72318   0.33942   0.00000  Uiso   1.00
C40    C     0.00000   0.81220   0.33942   0.00000  Uiso   1.00
H41    H     0.00000   0.69340   0.23198   0.00000  Uiso   1.00
O42    O     0.00000   0.85382   0.18923   0.00000  Uiso   1.00
C43    C     0.41547   0.00000   0.00000   0.00000  Uiso   1.00
C44    C     0.32133   0.00000   0.00000   0.00000  Uiso   1.00
C45    C     0.14330   0.00000   0.00000   0.00000  Uiso   1.00
O46    O     0.06643   0.00000   0.00000   0.00000  Uiso   1.00
C47    C     0.58453   0.00000   0.00000   0.00000  Uiso   1.00
C48    C     0.67867   0.00000   0.00000   0.00000  Uiso   1.00
C49    C     0.85670   0.00000   0.00000   0.00000  Uiso   1.00
O50    O     0.93357   0.00000   0.00000   0.00000  Uiso   1.00
C51    C     0.00000   0.41547   0.50000   0.00000  Uiso   1.00
C52    C     0.00000   0.32133   0.50000   0.00000  Uiso   1.00
C53    C     0.00000   0.14330   0.50000   0.00000  Uiso   1.00
O54    O     0.00000   0.06643   0.50000   0.00000  Uiso   1.00
C55    C     0.00000   0.58453   0.50000   0.00000  Uiso   1.00
C56    C     0.00000   0.67867   0.50000   0.00000  Uiso   1.00
C57    C     0.00000   0.85670   0.50000   0.00000  Uiso   1.00
O58    O     0.00000   0.93357   0.50000   0.00000  Uiso   1.00
loop_
_geom_bond_atom_site_label_1
_geom_bond_atom_site_label_2
_geom_bond_distance
_geom_bond_site_symmetry_2
_ccdc_geom_bond_type
Zr1    O7      2.328   .     S
Zr1    O12     2.328   1_455 S
Zr1    O37     2.328   .     S
Zr1    O42     2.328   1_545 S
Zr1    O46     2.142   .     S
Zr1    O50     2.142   1_455 S
Zr1    O54     2.142   .     S
Zr1    O58     2.142   1_545 S
Zr2    O17     2.328   .     S
Zr2    O22     2.328   1_545 S
Zr2    O27     2.328   1_455 S
Zr2    O32     2.328   .     S
Zr2    O54     2.142   .     S
Zr2    O58     2.142   1_545 S
Zr2    O50     2.142   1_456 S
Zr2    O46     2.142   1_556 S
N3     C43     1.320   .     S
N3     N8      1.320   .     S
C4     C44     1.390   .     S
C4     C5      1.390   .     S
C4     H6      0.930   .     S
C5     C45     1.390   .     S
C5     O7      1.300   .     S
N8     C47     1.320   .     S
C9     C48     1.390   .     S
C9     C10     1.390   .     S
C9     H11     0.930   .     S
C10    C49     1.390   .     S
C10    O12     1.300   .     S
O12    Zr1     2.328   1_655 S
N13    C51     1.320   .     S
N13    N18     1.320   .     S
C14    C52     1.390   .     S
C14    C15     1.390   .     S
C14    H16     0.930   .     S
C15    C53     1.390   .     S
C15    O17     1.300   .     S
N18    C55     1.320   .     S
C19    C56     1.390   .     S
C19    C20     1.390   .     S
C19    H21     0.930   .     S
C20    C57     1.390   .     S
C20    O22     1.300   .     S
O22    Zr2     2.328   1_565 S
N23    C47     1.320   1_556 S
N23    N28     1.320   .     S
C24    C48     1.390   1_556 S
C24    C25     1.390   .     S
C24    H26     0.930   .     S
C25    C49     1.390   1_556 S
C25    O27     1.300   .     S
O27    Zr2     2.328   1_655 S
N28    C43     1.320   1_556 S
C29    C44     1.390   1_556 S
C29    C30     1.390   .     S
C29    H31     0.930   .     S
C30    C45     1.390   1_556 S
C30    O32     1.300   .     S
N33    C51     1.320   .     S
N33    N38     1.320   .     S
C34    C52     1.390   .     S
C34    C35     1.390   .     S
C34    H36     0.930   .     S
C35    C53     1.390   .     S
C35    O37     1.300   .     S
N38    C55     1.320   .     S
C39    C56     1.390   .     S
C39    C40     1.390   .     S
C39    H41     0.930   .     S
C40    C57     1.390   .     S
C40    O42     1.300   .     S
O42    Zr1     2.328   1_565 S
C43    N28     1.320   1_554 S
C43    C44     1.470   .     S
C44    C29     1.390   1_554 S
C45    C30     1.390   1_554 S
C45    O46     1.200   .     S
O46    Zr2     2.142   1_554 S
C47    N23     1.320   1_554 S
C47    C48     1.470   .     S
C48    C24     1.390   1_554 S
C49    C25     1.390   1_554 S
C49    O50     1.200   .     S
O50    Zr1     2.142   1_655 S
O50    Zr2     2.142   1_654 S
C51    C52     1.470   .     S
C53    O54     1.200   .     S
C55    C56     1.470   .     S
C57    O58     1.200   .     S
O58    Zr2     2.142   1_565 S
O58    Zr1     2.142   1_565 S
