data_XECJUK01_FSR
_audit_creation_date              2024-06-11
_audit_creation_method            'Materials Studio'
_symmetry_space_group_name_H-M    'P1'
_symmetry_Int_Tables_number       1
_symmetry_cell_setting            triclinic
loop_
_symmetry_equiv_pos_as_xyz
  x,y,z
_cell_length_a                    6.2281
_cell_length_b                    9.4499
_cell_length_c                    10.6160
_cell_angle_alpha                 73.8140
_cell_angle_beta                  80.7230
_cell_angle_gamma                 75.1360
loop_
_atom_site_label
_atom_site_type_symbol
_atom_site_fract_x
_atom_site_fract_y
_atom_site_fract_z
_atom_site_U_iso_or_equiv
_atom_site_adp_type
_atom_site_occupancy
Sr1    Sr    0.53759   0.33093   0.53619   0.00000  Uiso   1.00
Sr2    Sr    0.01129   0.54202   0.25571   0.00000  Uiso   1.00
O1     O     0.74780   0.46170   0.65450   0.00000  Uiso   1.00
O2     O     0.70830   0.63520   0.77150   0.00000  Uiso   1.00
O3     O     0.79780   0.41040   0.13520   0.00000  Uiso   1.00
O4     O     0.83220   0.23830   0.02690   0.00000  Uiso   1.00
O5     O     0.62280   0.59450   0.38310   0.00000  Uiso   1.00
O6     O     0.35230   0.72140   0.50380   0.00000  Uiso   1.00
O7     O     0.92910   0.27540   0.41240   0.00000  Uiso   1.00
O8     O     0.19110   0.15470   0.28640   0.00000  Uiso   1.00
O9     O     0.42050   0.35960   0.29750   0.00000  Uiso   1.00
O10    O     0.74070   0.11520   0.72470   0.00000  Uiso   1.00
O11    O     0.24040   0.17460   0.62630   0.00000  Uiso   1.00
O12    O     0.13020   0.51160   0.49560   0.00000  Uiso   1.00
O13    O     0.30910   0.69770   0.16600   0.00000  Uiso   1.00
O14    O     0.80290   0.75040   0.07050   0.00000  Uiso   1.00
N1     N     0.35060   0.40050   0.77620   0.00000  Uiso   1.00
N2     N     0.19680   0.47210   0.01900   0.00000  Uiso   1.00
N3     N     0.85920   0.81610   0.33980   0.00000  Uiso   1.00
N4     N     0.68730   0.06210   0.45230   0.00000  Uiso   1.00
C1     C     0.45280   0.47960   0.82190   0.00000  Uiso   1.00
C2     C     0.37430   0.51710   0.94550   0.00000  Uiso   1.00
H1     H     0.44810   0.57370   0.97520   0.00000  Uiso   1.00
C3     C     0.09770   0.39090   0.96730   0.00000  Uiso   1.00
C4     C     0.17130   0.35970   0.84940   0.00000  Uiso   1.00
H2     H     0.09320   0.30730   0.81770   0.00000  Uiso   1.00
C5     C     0.64930   0.53100   0.74060   0.00000  Uiso   1.00
C6     C     0.88590   0.34400   0.04870   0.00000  Uiso   1.00
C7     C     0.96810   0.92270   0.32170   0.00000  Uiso   1.00
H3     H     0.10370   0.91770   0.26950   0.00000  Uiso   1.00
C8     C     0.88220   0.04480   0.38040   0.00000  Uiso   1.00
C9     C     0.57890   0.94770   0.46730   0.00000  Uiso   1.00
H4     H     0.44080   0.95360   0.51680   0.00000  Uiso   1.00
C10    C     0.66110   0.82590   0.41420   0.00000  Uiso   1.00
C11    C     0.01430   0.16960   0.35530   0.00000  Uiso   1.00
C12    C     0.53720   0.70610   0.43330   0.00000  Uiso   1.00
loop_
_geom_bond_atom_site_label_1
_geom_bond_atom_site_label_2
_geom_bond_distance
_geom_bond_site_symmetry_2
_ccdc_geom_bond_type
Sr1    O1      2.654   .     S
Sr1    O9      2.672   .     S
Sr1    O10     2.642   .     S
Sr1    O11     2.563   .     S
Sr1    N1      2.804   .     S
Sr1    O5      2.696   .     S
Sr1    O7      2.577   .     S
Sr1    O12     2.694   .     S
Sr1    N4      2.810   .     S
Sr2    O3      2.690   1_455 S
Sr2    O5      2.575   1_455 S
Sr2    O12     2.685   .     S
Sr2    O13     2.561   .     S
Sr2    O14     2.604   1_455 S
Sr2    N2      2.772   .     S
Sr2    N3      2.857   1_455 S
Sr2    O7      2.725   1_455 S
Sr2    O9      2.711   .     S
O1     C5      1.260   .     S
O2     C5      1.272   .     S
O3     Sr2     2.690   1_655 S
O3     C6      1.233   .     S
O4     C6      1.220   .     S
O5     Sr2     2.575   1_655 S
O5     C12     1.270   .     S
O6     C12     1.267   .     S
O7     C11     1.269   1_655 S
O7     Sr2     2.725   1_655 S
O8     C11     1.219   .     S
O14    Sr2     2.604   1_655 S
N1     C1      1.321   .     S
N1     C4      1.332   .     S
N2     C2      1.338   1_554 S
N2     C3      1.363   1_554 S
N3     Sr2     2.857   1_655 S
N3     C7      1.309   .     S
N3     C10     1.350   .     S
N4     C8      1.324   .     S
N4     C9      1.376   1_545 S
C1     C5      1.486   .     S
C1     C2      1.432   .     S
C2     N2      1.338   1_556 S
C2     H1      0.929   .     S
C3     N2      1.363   1_556 S
C3     C6      1.550   1_456 S
C3     C4      1.347   .     S
C4     H2      0.930   .     S
C6     C3      1.550   1_654 S
C7     H3      0.930   1_655 S
C7     C8      1.408   1_565 S
H3     C7      0.930   1_455 S
C8     C7      1.408   1_545 S
C8     C11     1.546   1_655 S
C9     N4      1.376   1_565 S
C9     H4      0.930   .     S
C9     C10     1.368   .     S
C10    C12     1.479   .     S
C11    O7      1.269   1_455 S
C11    C8      1.546   1_455 S
