data_XEGROT_FSR
_audit_creation_date              2024-06-11
_audit_creation_method            'Materials Studio'
_symmetry_space_group_name_H-M    'P1'
_symmetry_Int_Tables_number       1
_symmetry_cell_setting            triclinic
loop_
_symmetry_equiv_pos_as_xyz
  x,y,z
_cell_length_a                    14.2180
_cell_length_b                    14.6010
_cell_length_c                    19.9910
_cell_angle_alpha                 108.2920
_cell_angle_beta                  90.3350
_cell_angle_gamma                 107.5250
loop_
_atom_site_label
_atom_site_type_symbol
_atom_site_fract_x
_atom_site_fract_y
_atom_site_fract_z
_atom_site_U_iso_or_equiv
_atom_site_adp_type
_atom_site_occupancy
P1     P     0.72480   0.76960   0.21572   0.00000  Uiso   1.00
Mo2    Mo    0.78041   0.61416   0.05509   0.00000  Uiso   1.00
Mo3    Mo    0.60541   0.50185   0.14584   0.00000  Uiso   1.00
Mo4    Mo    0.56706   0.65573   0.32432   0.00000  Uiso   1.00
Mo5    Mo    0.58946   0.93742   0.21195   0.00000  Uiso   1.00
Mo6    Mo    0.98602   0.86504   0.26009   0.00000  Uiso   1.00
Mo7    Mo    0.81485   0.76503   0.37891   0.00000  Uiso   1.00
Mo8    Mo    0.88980   0.89579   0.11516   0.00000  Uiso   1.00
Mo9    Mo    0.85706   0.03394   0.27862   0.00000  Uiso   1.00
Mo10   Mo    0.84942   0.58868   0.20904   0.00000  Uiso   1.00
Mo11   Mo    0.46543   0.68262   0.16392   0.00000  Uiso   1.00
Mo12   Mo    0.62161   0.77528   0.05603   0.00000  Uiso   1.00
Mo13   Mo    0.67163   0.91469   0.38056   0.00000  Uiso   1.00
Ag14   Ag    0.86367   0.32297   0.33331   0.00000  Uiso   1.00
Ag15   Ag    0.09981   0.40570   0.35426   0.00000  Uiso   1.00
Ag16   Ag    0.19023   0.50652   0.20430   0.00000  Uiso   1.00
Ag17   Ag    0.26561   0.02209   0.23969   0.00000  Uiso   1.00
Ag18   Ag    0.98188   0.40251   0.04157   0.00000  Uiso   1.00
Ag19   Ag    0.28269   0.78082   0.26916   0.00000  Uiso   1.00
Ag20   Ag    0.55670   0.14021   0.52897   0.00000  Uiso   1.00
Ag21   Ag    0.00552   0.20716   0.45248   0.00000  Uiso   1.00
O22    O     0.87430   0.75120   0.44580   0.00000  Uiso   1.00
O23    O     0.95270   0.93170   0.05190   0.00000  Uiso   1.00
O24    O     0.89540   0.16310   0.31610   0.00000  Uiso   1.00
O25    O     0.53920   0.03150   0.22870   0.00000  Uiso   1.00
O26    O     0.99880   0.89010   0.17580   0.00000  Uiso   1.00
O27    O     0.52070   0.57070   0.13280   0.00000  Uiso   1.00
O28    O     0.80540   0.56140   0.97250   0.00000  Uiso   1.00
O29    O     0.46830   0.81950   0.19530   0.00000  Uiso   1.00
O30    O     0.49200   0.68280   0.25450   0.00000  Uiso   1.00
O31    O     0.59090   0.89840   0.11560   0.00000  Uiso   1.00
O32    O     0.68000   0.67380   0.38030   0.00000  Uiso   1.00
O33    O     0.57730   0.79850   0.38500   0.00000  Uiso   1.00
O34    O     0.85550   0.57100   0.10840   0.00000  Uiso   1.00
O35    O     0.91560   0.84230   0.34200   0.00000  Uiso   1.00
O36    O     0.82130   0.85330   0.21760   0.00000  Uiso   1.00
O37    O     0.96710   0.00060   0.29940   0.00000  Uiso   1.00
O38    O     0.67480   0.66960   0.03710   0.00000  Uiso   1.00
O39    O     0.94560   0.72600   0.22240   0.00000  Uiso   1.00
O40    O     0.60170   0.92440   0.30680   0.00000  Uiso   1.00
O41    O     0.89800   0.01930   0.18350   0.00000  Uiso   1.00
O42    O     0.76880   0.87220   0.42590   0.00000  Uiso   1.00
O43    O     0.78900   0.99250   0.34890   0.00000  Uiso   1.00
O44    O     0.53050   0.38140   0.12590   0.00000  Uiso   1.00
O45    O     0.86340   0.74600   0.07860   0.00000  Uiso   1.00
O46    O     0.92600   0.52680   0.22270   0.00000  Uiso   1.00
O47    O     0.49790   0.70050   0.07170   0.00000  Uiso   1.00
O48    O     0.82300   0.64890   0.30010   0.00000  Uiso   1.00
O49    O     0.10540   0.89370   0.29090   0.00000  Uiso   1.00
O50    O     0.72560   0.00620   0.23310   0.00000  Uiso   1.00
O51    O     0.70370   0.77500   0.29230   0.00000  Uiso   1.00
O52    O     0.66550   0.50160   0.06380   0.00000  Uiso   1.00
O53    O     0.63930   0.78470   0.17850   0.00000  Uiso   1.00
O54    O     0.59990   0.78380   0.97670   0.00000  Uiso   1.00
O55    O     0.76000   0.86580   0.08250   0.00000  Uiso   1.00
O56    O     0.65880   0.00660   0.45200   0.00000  Uiso   1.00
O57    O     0.58790   0.55690   0.24820   0.00000  Uiso   1.00
O58    O     0.34390   0.61810   0.14550   0.00000  Uiso   1.00
O59    O     0.72750   0.48780   0.18480   0.00000  Uiso   1.00
O60    O     0.47460   0.59070   0.35950   0.00000  Uiso   1.00
O61    O     0.73580   0.66540   0.17550   0.00000  Uiso   1.00
N62    N     0.13370   0.21390   0.38760   0.00000  Uiso   1.00
N63    N     0.36850   0.93420   0.34230   0.00000  Uiso   1.00
N64    N     0.04160   0.37520   0.18490   0.00000  Uiso   1.00
N65    N     0.07510   0.57190   0.09580   0.00000  Uiso   1.00
N66    N     0.16570   0.13740   0.35980   0.00000  Uiso   1.00
N67    N     0.14700   0.27060   0.34490   0.00000  Uiso   1.00
C68    C     0.18700   0.22360   0.28960   0.00000  Uiso   1.00
N69    N     0.29930   0.68790   0.34570   0.00000  Uiso   1.00
N70    N     0.18140   0.70700   0.17040   0.00000  Uiso   1.00
N71    N     0.36250   0.01760   0.33070   0.00000  Uiso   1.00
N72    N     0.01010   0.35190   0.23870   0.00000  Uiso   1.00
N73    N     0.42390   0.95980   0.40230   0.00000  Uiso   1.00
N74    N     0.91250   0.30320   0.22490   0.00000  Uiso   1.00
N75    N     0.45350   0.06150   0.43090   0.00000  Uiso   1.00
N76    N     0.24430   0.59300   0.32280   0.00000  Uiso   1.00
N77    N     0.96660   0.34170   0.13230   0.00000  Uiso   1.00
N78    N     0.22590   0.55780   0.37640   0.00000  Uiso   1.00
N79    N     0.08910   0.64640   0.06730   0.00000  Uiso   1.00
N80    N     0.13010   0.60780   0.15690   0.00000  Uiso   1.00
N81    N     0.32050   0.71660   0.41530   0.00000  Uiso   1.00
C82    C     0.28470   0.34890   0.12860   0.00000  Uiso   1.00
H83    H     0.30860   0.37560   0.09320   0.00000  Uiso   1.00
C84    C     0.21580   0.25470   0.11000   0.00000  Uiso   1.00
H85    H     0.19050   0.22010   0.06270   0.00000  Uiso   1.00
C86    C     0.31930   0.40480   0.19690   0.00000  Uiso   1.00
H87    H     0.36530   0.46960   0.20870   0.00000  Uiso   1.00
C88    C     0.28610   0.62870   0.64600   0.00000  Uiso   1.00
H89    H     0.29060   0.62720   0.69210   0.00000  Uiso   1.00
C90    C     0.29900   0.72220   0.56570   0.00000  Uiso   1.00
H91    H     0.31080   0.78450   0.55850   0.00000  Uiso   1.00
C92    C     0.26260   0.53990   0.58930   0.00000  Uiso   1.00
H93    H     0.24990   0.47840   0.59760   0.00000  Uiso   1.00
C94    C     0.63400   0.11060   0.08520   0.00000  Uiso   1.00
H95    H     0.59300   0.04930   0.08840   0.00000  Uiso   1.00
C96    C     0.18270   0.20950   0.16110   0.00000  Uiso   1.00
H97    H     0.13800   0.14390   0.14810   0.00000  Uiso   1.00
C98    C     0.28350   0.36190   0.25080   0.00000  Uiso   1.00
H99    H     0.30460   0.40000   0.29830   0.00000  Uiso   1.00
C100   C     0.45270   0.24440   0.34510   0.00000  Uiso   1.00
H101   H     0.46680   0.20540   0.30210   0.00000  Uiso   1.00
C102   C     0.21820   0.26490   0.23280   0.00000  Uiso   1.00
C103   C     0.45890   0.34530   0.35610   0.00000  Uiso   1.00
H104   H     0.47900   0.37410   0.32100   0.00000  Uiso   1.00
C105   C     0.25710   0.53980   0.51910   0.00000  Uiso   1.00
H106   H     0.24010   0.47900   0.48120   0.00000  Uiso   1.00
N107   N     0.19940   0.13930   0.29680   0.00000  Uiso   1.00
C108   C     0.19550   0.82800   0.10400   0.00000  Uiso   1.00
C109   C     0.72590   0.15510   0.12320   0.00000  Uiso   1.00
H110   H     0.74720   0.12420   0.15180   0.00000  Uiso   1.00
C111   C     0.75400   0.29250   0.07550   0.00000  Uiso   1.00
H112   H     0.79450   0.35400   0.07260   0.00000  Uiso   1.00
C113   C     0.18490   0.94990   0.04800   0.00000  Uiso   1.00
H114   H     0.14990   0.96770   0.01740   0.00000  Uiso   1.00
C115   C     0.43540   0.40190   0.41840   0.00000  Uiso   1.00
H116   H     0.43890   0.46900   0.42540   0.00000  Uiso   1.00
C117   C     0.66070   0.24650   0.03700   0.00000  Uiso   1.00
H118   H     0.63900   0.27690   0.00820   0.00000  Uiso   1.00
C119   C     0.30250   0.71830   0.63440   0.00000  Uiso   1.00
H120   H     0.31640   0.77820   0.67270   0.00000  Uiso   1.00
C121   C     0.27570   0.63610   0.43400   0.00000  Uiso   1.00
C122   C     0.27620   0.01370   0.08040   0.00000  Uiso   1.00
H123   H     0.30210   0.07600   0.07330   0.00000  Uiso   1.00
C124   C     0.29280   0.89360   0.13580   0.00000  Uiso   1.00
H125   H     0.32980   0.87420   0.16410   0.00000  Uiso   1.00
C126   C     0.60110   0.15610   0.04180   0.00000  Uiso   1.00
H127   H     0.53860   0.12480   0.01610   0.00000  Uiso   1.00
C128   C     0.40640   0.35930   0.47120   0.00000  Uiso   1.00
H129   H     0.38950   0.39780   0.51310   0.00000  Uiso   1.00
C130   C     0.88690   0.29550   0.15720   0.00000  Uiso   1.00
C131   C     0.33190   0.98560   0.12470   0.00000  Uiso   1.00
H132   H     0.39460   0.02890   0.14630   0.00000  Uiso   1.00
C133   C     0.40250   0.26020   0.46200   0.00000  Uiso   1.00
H134   H     0.38460   0.23220   0.49770   0.00000  Uiso   1.00
C135   C     0.78770   0.24720   0.11870   0.00000  Uiso   1.00
C136   C     0.27800   0.63300   0.50750   0.00000  Uiso   1.00
C137   C     0.41590   0.09610   0.38660   0.00000  Uiso   1.00
C138   C     0.14330   0.85750   0.06070   0.00000  Uiso   1.00
H139   H     0.07990   0.81560   0.03970   0.00000  Uiso   1.00
C140   C     0.42590   0.20290   0.39760   0.00000  Uiso   1.00
C141   C     0.15480   0.72970   0.11430   0.00000  Uiso   1.00
P142   P     0.27520   0.23040   0.78428   0.00000  Uiso   1.00
Mo143  Mo    0.21959   0.38584   0.94491   0.00000  Uiso   1.00
Mo144  Mo    0.39459   0.49815   0.85416   0.00000  Uiso   1.00
Mo145  Mo    0.43294   0.34427   0.67568   0.00000  Uiso   1.00
Mo146  Mo    0.41054   0.06258   0.78805   0.00000  Uiso   1.00
Mo147  Mo    0.01398   0.13496   0.73991   0.00000  Uiso   1.00
Mo148  Mo    0.18515   0.23497   0.62109   0.00000  Uiso   1.00
Mo149  Mo    0.11020   0.10421   0.88484   0.00000  Uiso   1.00
Mo150  Mo    0.14294   0.96606   0.72138   0.00000  Uiso   1.00
Mo151  Mo    0.15058   0.41132   0.79096   0.00000  Uiso   1.00
Mo152  Mo    0.53457   0.31738   0.83608   0.00000  Uiso   1.00
Mo153  Mo    0.37839   0.22472   0.94397   0.00000  Uiso   1.00
Mo154  Mo    0.32837   0.08531   0.61944   0.00000  Uiso   1.00
Ag155  Ag    0.13633   0.67703   0.66669   0.00000  Uiso   1.00
Ag156  Ag    0.90019   0.59430   0.64574   0.00000  Uiso   1.00
Ag157  Ag    0.80977   0.49348   0.79570   0.00000  Uiso   1.00
Ag158  Ag    0.73439   0.97791   0.76031   0.00000  Uiso   1.00
Ag159  Ag    0.01812   0.59749   0.95843   0.00000  Uiso   1.00
Ag160  Ag    0.71731   0.21918   0.73084   0.00000  Uiso   1.00
Ag161  Ag    0.44330   0.85979   0.47103   0.00000  Uiso   1.00
Ag162  Ag    0.99448   0.79284   0.54752   0.00000  Uiso   1.00
O163   O     0.12570   0.24880   0.55420   0.00000  Uiso   1.00
O164   O     0.04730   0.06830   0.94810   0.00000  Uiso   1.00
O165   O     0.10460   0.83690   0.68390   0.00000  Uiso   1.00
O166   O     0.46080   0.96850   0.77130   0.00000  Uiso   1.00
O167   O     0.00120   0.10990   0.82420   0.00000  Uiso   1.00
O168   O     0.47930   0.42930   0.86720   0.00000  Uiso   1.00
O169   O     0.19460   0.43860   0.02750   0.00000  Uiso   1.00
O170   O     0.53170   0.18050   0.80470   0.00000  Uiso   1.00
O171   O     0.50800   0.31720   0.74550   0.00000  Uiso   1.00
O172   O     0.40910   0.10160   0.88440   0.00000  Uiso   1.00
O173   O     0.32000   0.32620   0.61970   0.00000  Uiso   1.00
O174   O     0.42270   0.20150   0.61500   0.00000  Uiso   1.00
O175   O     0.14450   0.42900   0.89160   0.00000  Uiso   1.00
O176   O     0.08440   0.15770   0.65800   0.00000  Uiso   1.00
O177   O     0.17870   0.14670   0.78240   0.00000  Uiso   1.00
O178   O     0.03290   0.99940   0.70060   0.00000  Uiso   1.00
O179   O     0.32520   0.33040   0.96290   0.00000  Uiso   1.00
O180   O     0.05440   0.27400   0.77760   0.00000  Uiso   1.00
O181   O     0.39830   0.07560   0.69320   0.00000  Uiso   1.00
O182   O     0.10200   0.98070   0.81650   0.00000  Uiso   1.00
O183   O     0.23120   0.12780   0.57410   0.00000  Uiso   1.00
O184   O     0.21100   0.00750   0.65110   0.00000  Uiso   1.00
O185   O     0.46950   0.61860   0.87410   0.00000  Uiso   1.00
O186   O     0.13660   0.25400   0.92140   0.00000  Uiso   1.00
O187   O     0.07400   0.47320   0.77730   0.00000  Uiso   1.00
O188   O     0.50210   0.29950   0.92830   0.00000  Uiso   1.00
O189   O     0.17700   0.35110   0.69990   0.00000  Uiso   1.00
O190   O     0.89460   0.10630   0.70910   0.00000  Uiso   1.00
O191   O     0.27440   0.99380   0.76690   0.00000  Uiso   1.00
O192   O     0.29630   0.22500   0.70770   0.00000  Uiso   1.00
O193   O     0.33450   0.49840   0.93620   0.00000  Uiso   1.00
O194   O     0.36070   0.21530   0.82150   0.00000  Uiso   1.00
O195   O     0.40010   0.21620   0.02330   0.00000  Uiso   1.00
O196   O     0.24000   0.13420   0.91750   0.00000  Uiso   1.00
O197   O     0.34120   0.99340   0.54800   0.00000  Uiso   1.00
O198   O     0.41210   0.44310   0.75180   0.00000  Uiso   1.00
O199   O     0.65610   0.38190   0.85450   0.00000  Uiso   1.00
O200   O     0.27250   0.51220   0.81520   0.00000  Uiso   1.00
O201   O     0.52540   0.40930   0.64050   0.00000  Uiso   1.00
O202   O     0.26420   0.33460   0.82450   0.00000  Uiso   1.00
N203   N     0.86630   0.78610   0.61240   0.00000  Uiso   1.00
N204   N     0.63150   0.06580   0.65770   0.00000  Uiso   1.00
N205   N     0.95840   0.62480   0.81510   0.00000  Uiso   1.00
N206   N     0.92490   0.42810   0.90420   0.00000  Uiso   1.00
N207   N     0.83430   0.86260   0.64020   0.00000  Uiso   1.00
N208   N     0.85300   0.72940   0.65510   0.00000  Uiso   1.00
C209   C     0.81300   0.77640   0.71040   0.00000  Uiso   1.00
N210   N     0.70070   0.31210   0.65430   0.00000  Uiso   1.00
N211   N     0.81860   0.29300   0.82960   0.00000  Uiso   1.00
N212   N     0.63750   0.98240   0.66930   0.00000  Uiso   1.00
N213   N     0.98990   0.64810   0.76130   0.00000  Uiso   1.00
N214   N     0.57610   0.04020   0.59770   0.00000  Uiso   1.00
N215   N     0.08750   0.69680   0.77510   0.00000  Uiso   1.00
N216   N     0.54650   0.93850   0.56910   0.00000  Uiso   1.00
N217   N     0.75570   0.40700   0.67720   0.00000  Uiso   1.00
N218   N     0.03340   0.65830   0.86770   0.00000  Uiso   1.00
N219   N     0.77410   0.44220   0.62360   0.00000  Uiso   1.00
N220   N     0.91090   0.35360   0.93270   0.00000  Uiso   1.00
N221   N     0.86990   0.39220   0.84310   0.00000  Uiso   1.00
N222   N     0.67950   0.28340   0.58470   0.00000  Uiso   1.00
C223   C     0.71530   0.65110   0.87140   0.00000  Uiso   1.00
H224   H     0.69140   0.62440   0.90680   0.00000  Uiso   1.00
C225   C     0.78420   0.74530   0.89000   0.00000  Uiso   1.00
H226   H     0.80950   0.77990   0.93730   0.00000  Uiso   1.00
C227   C     0.68070   0.59520   0.80310   0.00000  Uiso   1.00
H228   H     0.63470   0.53040   0.79130   0.00000  Uiso   1.00
C229   C     0.71390   0.37130   0.35400   0.00000  Uiso   1.00
H230   H     0.70940   0.37280   0.30790   0.00000  Uiso   1.00
C231   C     0.70100   0.27780   0.43430   0.00000  Uiso   1.00
H232   H     0.68920   0.21550   0.44150   0.00000  Uiso   1.00
C233   C     0.73740   0.46010   0.41070   0.00000  Uiso   1.00
H234   H     0.75010   0.52160   0.40240   0.00000  Uiso   1.00
C235   C     0.36600   0.88940   0.91480   0.00000  Uiso   1.00
H236   H     0.40700   0.95070   0.91160   0.00000  Uiso   1.00
C237   C     0.81730   0.79050   0.83890   0.00000  Uiso   1.00
H238   H     0.86200   0.85610   0.85190   0.00000  Uiso   1.00
C239   C     0.71650   0.63810   0.74920   0.00000  Uiso   1.00
H240   H     0.69540   0.60000   0.70170   0.00000  Uiso   1.00
C241   C     0.54730   0.75560   0.65490   0.00000  Uiso   1.00
H242   H     0.53320   0.79460   0.69790   0.00000  Uiso   1.00
C243   C     0.78180   0.73510   0.76720   0.00000  Uiso   1.00
C244   C     0.54110   0.65470   0.64390   0.00000  Uiso   1.00
H245   H     0.52100   0.62590   0.67900   0.00000  Uiso   1.00
C246   C     0.74290   0.46020   0.48090   0.00000  Uiso   1.00
H247   H     0.75990   0.52100   0.51880   0.00000  Uiso   1.00
N248   N     0.80060   0.86070   0.70320   0.00000  Uiso   1.00
C249   C     0.80450   0.17200   0.89600   0.00000  Uiso   1.00
C250   C     0.27410   0.84490   0.87680   0.00000  Uiso   1.00
H251   H     0.25280   0.87580   0.84820   0.00000  Uiso   1.00
C252   C     0.24600   0.70750   0.92450   0.00000  Uiso   1.00
H253   H     0.20550   0.64600   0.92740   0.00000  Uiso   1.00
C254   C     0.81510   0.05010   0.95200   0.00000  Uiso   1.00
H255   H     0.85010   0.03230   0.98260   0.00000  Uiso   1.00
C256   C     0.56460   0.59810   0.58160   0.00000  Uiso   1.00
H257   H     0.56110   0.53100   0.57460   0.00000  Uiso   1.00
C258   C     0.33930   0.75350   0.96300   0.00000  Uiso   1.00
H259   H     0.36100   0.72310   0.99180   0.00000  Uiso   1.00
C260   C     0.69750   0.28170   0.36560   0.00000  Uiso   1.00
H261   H     0.68360   0.22180   0.32730   0.00000  Uiso   1.00
C262   C     0.72430   0.36390   0.56600   0.00000  Uiso   1.00
C263   C     0.72380   0.98630   0.91960   0.00000  Uiso   1.00
H264   H     0.69790   0.92400   0.92670   0.00000  Uiso   1.00
C265   C     0.70720   0.10640   0.86420   0.00000  Uiso   1.00
H266   H     0.67020   0.12580   0.83590   0.00000  Uiso   1.00
C267   C     0.39890   0.84390   0.95820   0.00000  Uiso   1.00
H268   H     0.46140   0.87520   0.98390   0.00000  Uiso   1.00
C269   C     0.59360   0.64070   0.52880   0.00000  Uiso   1.00
H270   H     0.61050   0.60220   0.48690   0.00000  Uiso   1.00
C271   C     0.11310   0.70450   0.84280   0.00000  Uiso   1.00
C272   C     0.66810   0.01440   0.87530   0.00000  Uiso   1.00
H273   H     0.60540   0.97110   0.85370   0.00000  Uiso   1.00
C274   C     0.59750   0.73980   0.53800   0.00000  Uiso   1.00
H275   H     0.61540   0.76780   0.50230   0.00000  Uiso   1.00
C276   C     0.21230   0.75280   0.88130   0.00000  Uiso   1.00
C277   C     0.72200   0.36700   0.49250   0.00000  Uiso   1.00
C278   C     0.58410   0.90390   0.61340   0.00000  Uiso   1.00
C279   C     0.85670   0.14250   0.93930   0.00000  Uiso   1.00
H280   H     0.92010   0.18440   0.96030   0.00000  Uiso   1.00
C281   C     0.57410   0.79710   0.60240   0.00000  Uiso   1.00
C282   C     0.84520   0.27030   0.88570   0.00000  Uiso   1.00
loop_
_geom_bond_atom_site_label_1
_geom_bond_atom_site_label_2
_geom_bond_distance
_geom_bond_site_symmetry_2
_ccdc_geom_bond_type
P1     O36     1.529   .     S
P1     O51     1.544   .     S
P1     O53     1.528   .     S
P1     O61     1.537   .     S
Mo2    O28     1.679   1_554 S
Mo2    O34     1.867   .     S
Mo2    O38     1.987   .     S
Mo2    O45     1.838   .     S
Mo2    O52     1.992   .     S
Mo2    O61     2.435   .     S
Mo3    O27     1.849   .     S
Mo3    O44     1.677   .     S
Mo3    O57     1.997   .     S
Mo3    O59     1.990   .     S
Mo3    O52     1.853   .     S
Mo3    O61     2.434   .     S
Mo4    O30     1.956   .     S
Mo4    O32     1.854   .     S
Mo4    O33     2.016   .     S
Mo4    O60     1.674   .     S
Mo4    O51     2.428   .     S
Mo4    O57     1.836   .     S
Mo5    O25     1.678   1_565 S
Mo5    O29     1.972   .     S
Mo5    O31     1.831   .     S
Mo5    O40     1.976   .     S
Mo5    O50     1.867   1_565 S
Mo5    O53     2.438   .     S
Mo6    O26     1.832   .     S
Mo6    O35     1.989   .     S
Mo6    O36     2.425   .     S
Mo6    O37     1.989   1_565 S
Mo6    O39     1.831   .     S
Mo6    O49     1.683   1_655 S
Mo7    O22     1.674   .     S
Mo7    O42     1.860   .     S
Mo7    O48     1.953   .     S
Mo7    O32     1.984   .     S
Mo7    O35     1.852   .     S
Mo7    O51     2.404   .     S
Mo8    O23     1.680   .     S
Mo8    O26     1.999   .     S
Mo8    O41     1.859   1_565 S
Mo8    O55     1.829   .     S
Mo8    O36     2.446   .     S
Mo8    O45     1.989   .     S
Mo9    O24     1.704   .     S
Mo9    O43     1.864   1_545 S
Mo9    O36     2.423   1_545 S
Mo9    O37     1.853   .     S
Mo9    O41     1.958   .     S
Mo9    O50     1.944   .     S
Mo10   O34     1.952   .     S
Mo10   O46     1.679   .     S
Mo10   O39     1.992   .     S
Mo10   O48     1.852   .     S
Mo10   O59     1.848   .     S
Mo10   O61     2.421   .     S
Mo11   O27     1.953   .     S
Mo11   O30     1.847   .     S
Mo11   O47     1.980   .     S
Mo11   O58     1.674   .     S
Mo11   O29     1.885   .     S
Mo11   O53     2.433   .     S
Mo12   O31     1.994   .     S
Mo12   O54     1.663   1_554 S
Mo12   O38     1.854   .     S
Mo12   O47     1.857   .     S
Mo12   O53     2.416   .     S
Mo12   O55     1.970   .     S
Mo13   O33     1.847   .     S
Mo13   O56     1.680   1_565 S
Mo13   O40     1.839   .     S
Mo13   O42     1.992   .     S
Mo13   O43     1.949   .     S
Mo13   O51     2.407   .     S
Ag14   O24     2.430   .     S
Ag14   N74     2.238   .     S
Ag14   C229    2.436   .     S
Ag14   C260    2.401   .     S
Ag15   N67     2.223   .     S
Ag15   N72     2.409   .     S
Ag15   N78     2.306   .     S
Ag16   N76     2.305   .     S
Ag16   N80     2.334   .     S
Ag16   N64     2.319   .     S
Ag16   C86     2.665   .     S
Ag17   N71     2.305   .     S
Ag17   N107    2.208   .     S
Ag17   C124    2.446   1_545 S
Ag17   C131    2.453   1_545 S
Ag18   N77     2.242   .     S
Ag18   N65     2.318   1_655 S
Ag18   N220    2.198   1_554 S
Ag19   N63     2.218   .     S
Ag19   N69     2.394   .     S
Ag19   N70     2.198   .     S
Ag20   N75     2.203   .     S
Ag20   N214    2.365   .     S
Ag20   N222    2.231   .     S
Ag21   N62     2.239   .     S
Ag21   O163    2.446   .     S
O22    Ag162   2.446   .     S
O25    Mo5     1.678   1_545 S
O28    Mo2     1.679   1_556 S
O36    Mo9     2.423   1_565 S
O37    Mo6     1.989   1_545 S
O41    Mo8     1.859   1_545 S
O43    Mo9     1.864   1_565 S
O49    Mo6     1.683   1_455 S
O50    Mo5     1.867   1_545 S
O54    Mo12    1.663   1_556 S
O56    Mo13    1.680   1_545 S
N62    N66     1.297   .     S
N62    N67     1.342   .     S
N63    N71     1.335   1_565 S
N63    N73     1.315   .     S
N64    N72     1.271   .     S
N64    N77     1.354   1_455 S
N65    N79     1.344   .     S
N65    Ag18    2.318   1_455 S
N65    N80     1.311   .     S
N66    N107    1.356   .     S
N67    C68     1.335   .     S
C68    C102    1.458   .     S
C68    N107    1.345   .     S
N69    N76     1.299   .     S
N69    N81     1.325   .     S
N70    C141    1.347   .     S
N70    N80     1.349   .     S
N71    N63     1.335   1_545 S
N71    C137    1.342   .     S
N72    N74     1.336   1_455 S
N73    N75     1.340   1_565 S
N73    Ag161   2.365   .     S
N74    C130    1.360   .     S
N74    N72     1.336   1_655 S
N75    N73     1.340   1_545 S
N75    C137    1.328   .     S
N76    N78     1.322   .     S
N77    N64     1.354   1_655 S
N77    C130    1.321   .     S
N78    C121    1.346   .     S
N79    C141    1.350   .     S
N79    Ag159   2.198   1_554 S
N81    C121    1.325   .     S
N81    Ag161   2.231   .     S
C82    H83     0.930   .     S
C82    C84     1.361   .     S
C82    C86     1.350   .     S
C84    H85     0.930   .     S
C84    C96     1.394   .     S
C86    H87     0.930   .     S
C86    C98     1.432   .     S
C88    H89     0.931   .     S
C88    C92     1.375   .     S
C88    C119    1.352   .     S
C88    Ag155   2.436   .     S
C90    H91     0.931   .     S
C90    C136    1.396   .     S
C90    C119    1.394   .     S
C92    H93     0.929   .     S
C92    C105    1.405   .     S
C94    H95     0.931   .     S
C94    C109    1.369   .     S
C94    C126    1.399   .     S
C96    H97     0.930   .     S
C96    C102    1.408   .     S
C98    H99     0.930   .     S
C98    C102    1.372   .     S
C100   H101    0.931   .     S
C100   C103    1.395   .     S
C100   C140    1.371   .     S
C103   H104    0.931   .     S
C103   C115    1.368   .     S
C105   H106    0.931   .     S
C105   C136    1.396   .     S
C108   C124    1.430   .     S
C108   C138    1.380   .     S
C108   C141    1.457   .     S
C109   H110    0.930   .     S
C109   C135    1.398   .     S
C111   H112    0.929   .     S
C111   C117    1.389   .     S
C111   C135    1.399   .     S
C113   H114    0.929   .     S
C113   C122    1.362   1_565 S
C113   C138    1.404   .     S
C115   H116    0.931   .     S
C115   C128    1.391   .     S
C117   H118    0.930   .     S
C117   C126    1.370   .     S
C119   H120    0.930   .     S
C119   Ag155   2.401   .     S
C121   C136    1.485   .     S
C122   C113    1.362   1_545 S
C122   H123    0.929   .     S
C122   C131    1.413   1_545 S
C124   Ag17    2.446   1_565 S
C124   H125    0.929   .     S
C124   C131    1.379   .     S
C126   H127    0.930   .     S
C128   H129    0.929   .     S
C128   C133    1.384   .     S
C130   C135    1.458   .     S
C131   Ag17    2.453   1_565 S
C131   H132    0.930   1_565 S
C131   C122    1.413   1_565 S
H132   C131    0.930   1_545 S
C133   H134    0.929   .     S
C133   C140    1.402   .     S
C137   C140    1.467   .     S
C138   H139    0.930   .     S
P142   O177    1.529   .     S
P142   O192    1.544   .     S
P142   O194    1.528   .     S
P142   O202    1.537   .     S
Mo143  O169    1.679   1_556 S
Mo143  O175    1.867   .     S
Mo143  O179    1.987   .     S
Mo143  O186    1.838   .     S
Mo143  O193    1.992   .     S
Mo143  O202    2.435   .     S
Mo144  O168    1.849   .     S
Mo144  O185    1.677   .     S
Mo144  O198    1.997   .     S
Mo144  O200    1.990   .     S
Mo144  O193    1.853   .     S
Mo144  O202    2.434   .     S
Mo145  O171    1.956   .     S
Mo145  O173    1.854   .     S
Mo145  O174    2.016   .     S
Mo145  O201    1.674   .     S
Mo145  O192    2.428   .     S
Mo145  O198    1.836   .     S
Mo146  O166    1.678   1_545 S
Mo146  O170    1.972   .     S
Mo146  O172    1.831   .     S
Mo146  O181    1.976   .     S
Mo146  O191    1.867   1_545 S
Mo146  O194    2.438   .     S
Mo147  O167    1.832   .     S
Mo147  O176    1.989   .     S
Mo147  O177    2.425   .     S
Mo147  O178    1.989   1_545 S
Mo147  O180    1.831   .     S
Mo147  O190    1.683   1_455 S
Mo148  O163    1.674   .     S
Mo148  O183    1.860   .     S
Mo148  O189    1.953   .     S
Mo148  O173    1.984   .     S
Mo148  O176    1.852   .     S
Mo148  O192    2.404   .     S
Mo149  O164    1.680   .     S
Mo149  O167    1.999   .     S
Mo149  O182    1.859   1_545 S
Mo149  O196    1.829   .     S
Mo149  O177    2.446   .     S
Mo149  O186    1.989   .     S
Mo150  O165    1.704   .     S
Mo150  O184    1.864   1_565 S
Mo150  O177    2.423   1_565 S
Mo150  O178    1.853   .     S
Mo150  O182    1.958   .     S
Mo150  O191    1.944   .     S
Mo151  O175    1.952   .     S
Mo151  O187    1.679   .     S
Mo151  O180    1.992   .     S
Mo151  O189    1.852   .     S
Mo151  O200    1.848   .     S
Mo151  O202    2.421   .     S
Mo152  O168    1.953   .     S
Mo152  O171    1.847   .     S
Mo152  O188    1.980   .     S
Mo152  O199    1.674   .     S
Mo152  O170    1.885   .     S
Mo152  O194    2.433   .     S
Mo153  O172    1.994   .     S
Mo153  O195    1.663   1_556 S
Mo153  O179    1.854   .     S
Mo153  O188    1.857   .     S
Mo153  O194    2.416   .     S
Mo153  O196    1.970   .     S
Mo154  O174    1.847   .     S
Mo154  O197    1.680   1_545 S
Mo154  O181    1.839   .     S
Mo154  O183    1.992   .     S
Mo154  O184    1.949   .     S
Mo154  O192    2.407   .     S
Ag155  O165    2.430   .     S
Ag155  N215    2.238   .     S
Ag156  N208    2.223   .     S
Ag156  N213    2.409   .     S
Ag156  N219    2.306   .     S
Ag157  N217    2.305   .     S
Ag157  N221    2.334   .     S
Ag157  N205    2.319   .     S
Ag157  C227    2.665   .     S
Ag158  N212    2.305   .     S
Ag158  N248    2.208   .     S
Ag158  C265    2.446   1_565 S
Ag158  C272    2.453   1_565 S
Ag159  N218    2.242   .     S
Ag159  N206    2.318   1_455 S
Ag159  N79     2.198   1_556 S
Ag160  N204    2.218   .     S
Ag160  N210    2.394   .     S
Ag160  N211    2.198   .     S
Ag161  N216    2.203   .     S
Ag162  N203    2.239   .     S
O166   Mo146   1.678   1_565 S
O169   Mo143   1.679   1_554 S
O177   Mo150   2.423   1_545 S
O178   Mo147   1.989   1_565 S
O182   Mo149   1.859   1_565 S
O184   Mo150   1.864   1_545 S
O190   Mo147   1.683   1_655 S
O191   Mo146   1.867   1_565 S
O195   Mo153   1.663   1_554 S
O197   Mo154   1.680   1_565 S
N203   N207    1.297   .     S
N203   N208    1.342   .     S
N204   N212    1.335   1_545 S
N204   N214    1.315   .     S
N205   N213    1.271   .     S
N205   N218    1.354   1_655 S
N206   N220    1.344   .     S
N206   Ag159   2.318   1_655 S
N206   N221    1.311   .     S
N207   N248    1.356   .     S
N208   C209    1.335   .     S
C209   C243    1.458   .     S
C209   N248    1.345   .     S
N210   N217    1.299   .     S
N210   N222    1.325   .     S
N211   C282    1.347   .     S
N211   N221    1.349   .     S
N212   N204    1.335   1_565 S
N212   C278    1.342   .     S
N213   N215    1.336   1_655 S
N214   N216    1.340   1_545 S
N215   C271    1.360   .     S
N215   N213    1.336   1_455 S
N216   N214    1.340   1_565 S
N216   C278    1.328   .     S
N217   N219    1.322   .     S
N218   N205    1.354   1_455 S
N218   C271    1.321   .     S
N219   C262    1.346   .     S
N220   C282    1.350   .     S
N220   Ag18    2.198   1_556 S
N222   C262    1.325   .     S
C223   H224    0.930   .     S
C223   C225    1.361   .     S
C223   C227    1.350   .     S
C225   H226    0.930   .     S
C225   C237    1.394   .     S
C227   H228    0.930   .     S
C227   C239    1.432   .     S
C229   H230    0.931   .     S
C229   C233    1.375   .     S
C229   C260    1.352   .     S
C231   H232    0.931   .     S
C231   C277    1.396   .     S
C231   C260    1.394   .     S
C233   H234    0.929   .     S
C233   C246    1.405   .     S
C235   H236    0.931   .     S
C235   C250    1.369   .     S
C235   C267    1.399   .     S
C237   H238    0.930   .     S
C237   C243    1.408   .     S
C239   H240    0.930   .     S
C239   C243    1.372   .     S
C241   H242    0.931   .     S
C241   C244    1.395   .     S
C241   C281    1.371   .     S
C244   H245    0.931   .     S
C244   C256    1.368   .     S
C246   H247    0.931   .     S
C246   C277    1.396   .     S
C249   C265    1.430   .     S
C249   C279    1.380   .     S
C249   C282    1.457   .     S
C250   H251    0.930   .     S
C250   C276    1.398   .     S
C252   H253    0.929   .     S
C252   C258    1.389   .     S
C252   C276    1.399   .     S
C254   H255    0.929   .     S
C254   C263    1.362   1_545 S
C254   C279    1.404   .     S
C256   H257    0.931   .     S
C256   C269    1.391   .     S
C258   H259    0.930   .     S
C258   C267    1.370   .     S
C260   H261    0.930   .     S
C262   C277    1.485   .     S
C263   C254    1.362   1_565 S
C263   H264    0.929   .     S
C263   C272    1.413   1_565 S
C265   Ag158   2.446   1_545 S
C265   H266    0.929   .     S
C265   C272    1.379   .     S
C267   H268    0.930   .     S
C269   H270    0.929   .     S
C269   C274    1.384   .     S
C271   C276    1.458   .     S
C272   Ag158   2.453   1_545 S
C272   H273    0.930   1_545 S
C272   C263    1.413   1_545 S
H273   C272    0.930   1_565 S
C274   H275    0.929   .     S
C274   C281    1.402   .     S
C278   C281    1.467   .     S
C279   H280    0.930   .     S
