data_XEWCUA_directopt
_audit_creation_date              2024-06-11
_audit_creation_method            'Materials Studio'
_symmetry_space_group_name_H-M    'P1'
_symmetry_Int_Tables_number       1
_symmetry_cell_setting            triclinic
loop_
_symmetry_equiv_pos_as_xyz
  x,y,z
_cell_length_a                    16.8912
_cell_length_b                    16.8912
_cell_length_c                    6.6697
_cell_angle_alpha                 90.0000
_cell_angle_beta                  90.0000
_cell_angle_gamma                 120.0000
loop_
_atom_site_label
_atom_site_type_symbol
_atom_site_fract_x
_atom_site_fract_y
_atom_site_fract_z
_atom_site_U_iso_or_equiv
_atom_site_adp_type
_atom_site_occupancy
O1     O     0.52834   0.49321   0.25000   0.01010  Uiso   1.00
O2     O     0.49330   0.60380   0.43146   0.01010  Uiso   1.00
O3     O     0.49330   0.60380   0.06852   0.01010  Uiso   1.00
O4     O     0.57181   0.94934   0.07212   0.01010  Uiso   1.00
O5     O     0.57181   0.94935   0.42789   0.01010  Uiso   1.00
C6     C     0.54284   0.89406   0.25001   0.01010  Uiso   1.00
C7     C     0.53158   0.65564   0.24999   0.01010  Uiso   1.00
C8     C     0.51032   0.73007   0.24999   0.01010  Uiso   1.00
C9     C     0.57385   0.82670   0.25003   0.01010  Uiso   1.00
C10    C     0.67474   0.85980   0.24987   0.01010  Uiso   1.00
H11    H     0.27120   0.56183   0.24998   0.00000  Uiso   1.00
H12    H     0.22022   0.28453   0.25088   0.00000  Uiso   1.00
H13    H     0.14167   0.30713   0.11353   0.00000  Uiso   1.00
H14    H     0.14097   0.30718   0.38504   0.00000  Uiso   1.00
O15    O     0.50679   0.03513   0.25000   0.01010  Uiso   1.00
O16    O     0.39620   0.88950   0.43146   0.01010  Uiso   1.00
O17    O     0.39620   0.88950   0.06852   0.01010  Uiso   1.00
O18    O     0.05066   0.62246   0.07212   0.01010  Uiso   1.00
O19    O     0.05065   0.62246   0.42789   0.01010  Uiso   1.00
C20    C     0.10594   0.64878   0.25001   0.01010  Uiso   1.00
C21    C     0.34436   0.87594   0.24999   0.01010  Uiso   1.00
C22    C     0.26993   0.78024   0.24999   0.01010  Uiso   1.00
C23    C     0.17330   0.74716   0.25003   0.01010  Uiso   1.00
C24    C     0.14020   0.81494   0.24987   0.01010  Uiso   1.00
H25    H     0.43817   0.70936   0.24998   0.00000  Uiso   1.00
H26    H     0.71547   0.93569   0.25088   0.00000  Uiso   1.00
H27    H     0.69287   0.83454   0.11353   0.00000  Uiso   1.00
H28    H     0.69282   0.83379   0.38504   0.00000  Uiso   1.00
O29    O     0.96487   0.47166   0.25000   0.01010  Uiso   1.00
O30    O     0.11050   0.50670   0.43146   0.01010  Uiso   1.00
O31    O     0.11050   0.50670   0.06852   0.01010  Uiso   1.00
O32    O     0.37754   0.42819   0.07212   0.01010  Uiso   1.00
O33    O     0.37754   0.42819   0.42789   0.01010  Uiso   1.00
C34    C     0.35122   0.45716   0.25001   0.01010  Uiso   1.00
C35    C     0.12406   0.46842   0.24999   0.01010  Uiso   1.00
C36    C     0.21976   0.48968   0.24999   0.01010  Uiso   1.00
C37    C     0.25284   0.42615   0.25003   0.01010  Uiso   1.00
C38    C     0.18506   0.32526   0.24987   0.01010  Uiso   1.00
H39    H     0.29064   0.72880   0.24998   0.00000  Uiso   1.00
H40    H     0.06431   0.77978   0.25088   0.00000  Uiso   1.00
H41    H     0.16546   0.85833   0.11353   0.00000  Uiso   1.00
H42    H     0.16621   0.85903   0.38504   0.00000  Uiso   1.00
O43    O     0.47166   0.50679   0.75000   0.01010  Uiso   1.00
O44    O     0.50670   0.39620   0.56854   0.01010  Uiso   1.00
O45    O     0.50670   0.39620   0.93148   0.01010  Uiso   1.00
O46    O     0.42819   0.05066   0.92788   0.01010  Uiso   1.00
O47    O     0.42819   0.05065   0.57211   0.01010  Uiso   1.00
C48    C     0.45716   0.10594   0.74999   0.01010  Uiso   1.00
C49    C     0.46842   0.34436   0.75001   0.01010  Uiso   1.00
C50    C     0.48968   0.26993   0.75001   0.01010  Uiso   1.00
C51    C     0.42615   0.17330   0.74997   0.01010  Uiso   1.00
C52    C     0.32526   0.14020   0.75013   0.01010  Uiso   1.00
H53    H     0.72880   0.43817   0.75002   0.00000  Uiso   1.00
H54    H     0.77978   0.71547   0.74912   0.00000  Uiso   1.00
H55    H     0.85833   0.69287   0.88647   0.00000  Uiso   1.00
H56    H     0.85903   0.69282   0.61496   0.00000  Uiso   1.00
O57    O     0.49321   0.96487   0.75000   0.01010  Uiso   1.00
O58    O     0.60380   0.11050   0.56854   0.01010  Uiso   1.00
O59    O     0.60380   0.11050   0.93148   0.01010  Uiso   1.00
O60    O     0.94934   0.37754   0.92788   0.01010  Uiso   1.00
O61    O     0.94935   0.37754   0.57211   0.01010  Uiso   1.00
C62    C     0.89406   0.35122   0.74999   0.01010  Uiso   1.00
C63    C     0.65564   0.12406   0.75001   0.01010  Uiso   1.00
C64    C     0.73007   0.21976   0.75001   0.01010  Uiso   1.00
C65    C     0.82670   0.25284   0.74997   0.01010  Uiso   1.00
C66    C     0.85980   0.18506   0.75013   0.01010  Uiso   1.00
H67    H     0.56183   0.29064   0.75002   0.00000  Uiso   1.00
H68    H     0.28453   0.06431   0.74912   0.00000  Uiso   1.00
H69    H     0.30713   0.16546   0.88647   0.00000  Uiso   1.00
H70    H     0.30718   0.16621   0.61496   0.00000  Uiso   1.00
O71    O     0.03513   0.52834   0.75000   0.01010  Uiso   1.00
O72    O     0.88950   0.49330   0.56854   0.01010  Uiso   1.00
O73    O     0.88950   0.49330   0.93148   0.01010  Uiso   1.00
O74    O     0.62246   0.57181   0.92788   0.01010  Uiso   1.00
O75    O     0.62246   0.57181   0.57211   0.01010  Uiso   1.00
C76    C     0.64878   0.54284   0.74999   0.01010  Uiso   1.00
C77    C     0.87594   0.53158   0.75001   0.01010  Uiso   1.00
C78    C     0.78024   0.51032   0.75001   0.01010  Uiso   1.00
C79    C     0.74716   0.57385   0.74997   0.01010  Uiso   1.00
C80    C     0.81494   0.67474   0.75013   0.01010  Uiso   1.00
H81    H     0.70936   0.27120   0.75002   0.00000  Uiso   1.00
H82    H     0.93569   0.22022   0.74912   0.00000  Uiso   1.00
H83    H     0.83454   0.14167   0.88647   0.00000  Uiso   1.00
H84    H     0.83379   0.14097   0.61496   0.00000  Uiso   1.00
Al85   Al    0.50000   0.50000   0.00000   0.01010  Uiso   1.00
Al86   Al    0.50000  -0.00000   0.00000   0.01010  Uiso   1.00
Al87   Al    0.00000   0.50000   0.00000   0.01010  Uiso   1.00
Al88   Al    0.50000   0.50000   0.50000   0.01010  Uiso   1.00
Al89   Al    0.50000  -0.00000   0.50000   0.01010  Uiso   1.00
Al90   Al   -0.00000   0.50000   0.50000   0.01010  Uiso   1.00
loop_
_geom_bond_atom_site_label_1
_geom_bond_atom_site_label_2
_geom_bond_distance
_geom_bond_site_symmetry_2
_ccdc_geom_bond_type
O1     Al85    1.754   .     S
O1     Al88    1.754   .     S
O2     Al88    1.869   .     S
O2     C7      1.443   .     S
O3     Al85    1.869   .     S
O3     C7      1.443   .     S
O4     C6      1.436   .     S
O4     Al86    1.863   1_565 S
O5     C6      1.436   .     S
O5     Al89    1.863   1_565 S
C6     C9      1.471   .     S
C7     C8      1.470   .     S
C8     C9      1.437   .     D
C8     H25     1.087   .     S
C9     C10     1.505   .     S
C10    H26     1.111   .     S
C10    H27     1.111   .     S
C10    H28     1.111   .     S
H11    C36     1.087   .     S
H12    C38     1.111   .     S
H13    C38     1.111   .     S
H14    C38     1.111   .     S
O15    Al86    1.754   .     S
O15    Al89    1.754   .     S
O16    Al89    1.869   1_565 S
O16    C21     1.443   .     S
O17    Al86    1.869   1_565 S
O17    C21     1.443   .     S
O18    C20     1.436   .     S
O18    Al87    1.863   .     S
O19    C20     1.436   .     S
O19    Al90    1.863   .     S
C20    C23     1.471   .     S
C21    C22     1.470   .     S
C22    C23     1.437   .     D
C22    H39     1.087   .     S
C23    C24     1.505   .     S
C24    H40     1.111   .     S
C24    H41     1.111   .     S
C24    H42     1.111   .     S
O29    Al87    1.754   1_655 S
O29    Al90    1.754   1_655 S
O30    Al90    1.869   .     S
O30    C35     1.443   .     S
O31    Al87    1.869   .     S
O31    C35     1.443   .     S
O32    C34     1.436   .     S
O32    Al85    1.863   .     S
O33    C34     1.436   .     S
O33    Al88    1.863   .     S
C34    C37     1.471   .     S
C35    C36     1.470   .     S
C36    C37     1.437   .     D
C37    C38     1.505   .     S
O43    Al85    1.754   1_556 S
O43    Al88    1.754   .     S
O44    Al88    1.869   .     S
O44    C49     1.443   .     S
O45    Al85    1.869   1_556 S
O45    C49     1.443   .     S
O46    C48     1.436   .     S
O46    Al86    1.863   1_556 S
O47    C48     1.436   .     S
O47    Al89    1.863   .     S
C48    C51     1.471   .     S
C49    C50     1.470   .     S
C50    C51     1.437   .     D
C50    H67     1.087   .     S
C51    C52     1.505   .     S
C52    H68     1.111   .     S
C52    H69     1.111   .     S
C52    H70     1.111   .     S
H53    C78     1.087   .     S
H54    C80     1.111   .     S
H55    C80     1.111   .     S
H56    C80     1.111   .     S
O57    Al86    1.754   1_566 S
O57    Al89    1.754   1_565 S
O58    Al89    1.869   .     S
O58    C63     1.443   .     S
O59    Al86    1.869   1_556 S
O59    C63     1.443   .     S
O60    C62     1.436   .     S
O60    Al87    1.863   1_656 S
O61    C62     1.436   .     S
O61    Al90    1.863   1_655 S
C62    C65     1.471   .     S
C63    C64     1.470   .     S
C64    C65     1.437   .     D
C64    H81     1.087   .     S
C65    C66     1.505   .     S
C66    H82     1.111   .     S
C66    H83     1.111   .     S
C66    H84     1.111   .     S
O71    Al87    1.754   1_556 S
O71    Al90    1.754   .     S
O72    Al90    1.869   1_655 S
O72    C77     1.443   .     S
O73    Al87    1.869   1_656 S
O73    C77     1.443   .     S
O74    C76     1.436   .     S
O74    Al85    1.863   1_556 S
O75    C76     1.436   .     S
O75    Al88    1.863   .     S
C76    C79     1.471   .     S
C77    C78     1.470   .     S
C78    C79     1.437   .     D
C79    C80     1.505   .     S
Al85   O43     1.754   1_554 S
Al85   O45     1.869   1_554 S
Al85   O74     1.863   1_554 S
Al86   O57     1.754   1_544 S
Al86   O17     1.869   1_545 S
Al86   O59     1.869   1_554 S
Al86   O4      1.863   1_545 S
Al86   O46     1.863   1_554 S
Al87   O29     1.754   1_455 S
Al87   O71     1.754   1_554 S
Al87   O73     1.869   1_454 S
Al87   O60     1.863   1_454 S
Al89   O57     1.754   1_545 S
Al89   O16     1.869   1_545 S
Al89   O5      1.863   1_545 S
Al90   O29     1.754   1_455 S
Al90   O72     1.869   1_455 S
Al90   O61     1.863   1_455 S
