data_XIYYEL_FSR
_audit_creation_date              2024-06-11
_audit_creation_method            'Materials Studio'
_symmetry_space_group_name_H-M    'P1'
_symmetry_Int_Tables_number       1
_symmetry_cell_setting            triclinic
loop_
_symmetry_equiv_pos_as_xyz
  x,y,z
_cell_length_a                    15.3710
_cell_length_b                    15.3710
_cell_length_c                    15.3710
_cell_angle_alpha                 90.0000
_cell_angle_beta                  90.0000
_cell_angle_gamma                 90.0000
loop_
_atom_site_label
_atom_site_type_symbol
_atom_site_fract_x
_atom_site_fract_y
_atom_site_fract_z
_atom_site_U_iso_or_equiv
_atom_site_adp_type
_atom_site_occupancy
O1     O     0.98890   0.63630   0.87890   0.02433  Uani   1.00
O2     O     0.48890   0.13630   0.37890   0.02433  Uani   1.00
O3     O     0.51110   0.36370   0.37890   0.02433  Uani   1.00
O4     O     0.01110   0.86370   0.87890   0.02433  Uani   1.00
O5     O     0.01110   0.13630   0.62110   0.02433  Uani   1.00
O6     O     0.51110   0.63630   0.12110   0.02433  Uani   1.00
O7     O     0.48890   0.86370   0.12110   0.02433  Uani   1.00
O8     O     0.98890   0.36370   0.62110   0.02433  Uani   1.00
O9     O     0.87890   0.98890   0.63630   0.02433  Uani   1.00
O10    O     0.37890   0.48890   0.13630   0.02433  Uani   1.00
O11    O     0.37890   0.51110   0.36370   0.02433  Uani   1.00
O12    O     0.87890   0.01110   0.86370   0.02433  Uani   1.00
O13    O     0.62110   0.01110   0.13630   0.02433  Uani   1.00
O14    O     0.12110   0.51110   0.63630   0.02433  Uani   1.00
O15    O     0.12110   0.48890   0.86370   0.02433  Uani   1.00
O16    O     0.62110   0.98890   0.36370   0.02433  Uani   1.00
O17    O     0.63630   0.87890   0.98890   0.02433  Uani   1.00
O18    O     0.13630   0.37890   0.48890   0.02433  Uani   1.00
O19    O     0.36370   0.37890   0.51110   0.02433  Uani   1.00
O20    O     0.86370   0.87890   0.01110   0.02433  Uani   1.00
O21    O     0.13630   0.62110   0.01110   0.02433  Uani   1.00
O22    O     0.63630   0.12110   0.51110   0.02433  Uani   1.00
O23    O     0.86370   0.12110   0.48890   0.02433  Uani   1.00
O24    O     0.36370   0.62110   0.98890   0.02433  Uani   1.00
O25    O     0.38630   0.23890   0.37110   0.02433  Uani   1.00
O26    O     0.88630   0.73890   0.87110   0.02433  Uani   1.00
O27    O     0.11370   0.76110   0.87110   0.02433  Uani   1.00
O28    O     0.61370   0.26110   0.37110   0.02433  Uani   1.00
O29    O     0.88630   0.26110   0.62890   0.02433  Uani   1.00
O30    O     0.38630   0.76110   0.12890   0.02433  Uani   1.00
O31    O     0.61370   0.73890   0.12890   0.02433  Uani   1.00
O32    O     0.11370   0.23890   0.62890   0.02433  Uani   1.00
O33    O     0.73890   0.12890   0.61370   0.02433  Uani   1.00
O34    O     0.23890   0.62890   0.11370   0.02433  Uani   1.00
O35    O     0.26110   0.62890   0.88630   0.02433  Uani   1.00
O36    O     0.76110   0.12890   0.38630   0.02433  Uani   1.00
O37    O     0.76110   0.87110   0.11370   0.02433  Uani   1.00
O38    O     0.26110   0.37110   0.61370   0.02433  Uani   1.00
O39    O     0.23890   0.37110   0.38630   0.02433  Uani   1.00
O40    O     0.73890   0.87110   0.88630   0.02433  Uani   1.00
O41    O     0.62890   0.88630   0.26110   0.02433  Uani   1.00
O42    O     0.12890   0.38630   0.76110   0.02433  Uani   1.00
O43    O     0.12890   0.61370   0.73890   0.02433  Uani   1.00
O44    O     0.62890   0.11370   0.23890   0.02433  Uani   1.00
O45    O     0.37110   0.38630   0.23890   0.02433  Uani   1.00
O46    O     0.87110   0.88630   0.73890   0.02433  Uani   1.00
O47    O     0.87110   0.11370   0.76110   0.02433  Uani   1.00
O48    O     0.37110   0.61370   0.26110   0.02433  Uani   1.00
Zn49   Zn    0.12500   0.62500   0.87500   0.02030  Uani   1.00
Zn50   Zn    0.62500   0.12500   0.37500   0.02030  Uani   1.00
Zn51   Zn    0.37500   0.37500   0.37500   0.02030  Uani   1.00
Zn52   Zn    0.87500   0.87500   0.87500   0.02030  Uani   1.00
Zn53   Zn    0.87500   0.12500   0.62500   0.02030  Uani   1.00
Zn54   Zn    0.37500   0.62500   0.12500   0.02030  Uani   1.00
Zn55   Zn    0.62500   0.87500   0.12500   0.02030  Uani   1.00
Zn56   Zn    0.12500   0.37500   0.62500   0.02030  Uani   1.00
C57    C     0.96330   0.71330   0.87500   0.01767  Uani   1.00
C58    C     0.53670   0.28670   0.37500   0.01767  Uani   1.00
C59    C     0.03670   0.21330   0.62500   0.01767  Uani   1.00
C60    C     0.46330   0.78670   0.12500   0.01767  Uani   1.00
C61    C     0.87500   0.96330   0.71330   0.01767  Uani   1.00
C62    C     0.37500   0.53670   0.28670   0.01767  Uani   1.00
C63    C     0.62500   0.03670   0.21330   0.01767  Uani   1.00
C64    C     0.12500   0.46330   0.78670   0.01767  Uani   1.00
C65    C     0.71330   0.87500   0.96330   0.01767  Uani   1.00
C66    C     0.28670   0.37500   0.53670   0.01767  Uani   1.00
C67    C     0.21330   0.62500   0.03670   0.01767  Uani   1.00
C68    C     0.78670   0.12500   0.46330   0.01767  Uani   1.00
C69    C     0.46330   0.21330   0.37500   0.01767  Uani   1.00
C70    C     0.03670   0.78670   0.87500   0.01767  Uani   1.00
C71    C     0.96330   0.28670   0.62500   0.01767  Uani   1.00
C72    C     0.53670   0.71330   0.12500   0.01767  Uani   1.00
C73    C     0.71330   0.12500   0.53670   0.01767  Uani   1.00
C74    C     0.28670   0.62500   0.96330   0.01767  Uani   1.00
C75    C     0.78670   0.87500   0.03670   0.01767  Uani   1.00
C76    C     0.21330   0.37500   0.46330   0.01767  Uani   1.00
C77    C     0.62500   0.96330   0.28670   0.01767  Uani   1.00
C78    C     0.12500   0.53670   0.71330   0.01767  Uani   1.00
C79    C     0.37500   0.46330   0.21330   0.01767  Uani   1.00
C80    C     0.87500   0.03670   0.78670   0.01767  Uani   1.00
loop_
_atom_site_aniso_label
_atom_site_aniso_U_11
_atom_site_aniso_U_22
_atom_site_aniso_U_33
_atom_site_aniso_U_12
_atom_site_aniso_U_13
_atom_site_aniso_U_23
O1        0.02200   0.01500   0.03600  -0.00300  -0.00500  -0.00100
O2        0.02200   0.01500   0.03600  -0.00300  -0.00500  -0.00100
O3        0.02200   0.01500   0.03600  -0.00300   0.00500   0.00100
O4        0.02200   0.01500   0.03600  -0.00300   0.00500   0.00100
O5        0.02200   0.01500   0.03600   0.00300  -0.00500   0.00100
O6        0.02200   0.01500   0.03600   0.00300  -0.00500   0.00100
O7        0.02200   0.01500   0.03600   0.00300   0.00500  -0.00100
O8        0.02200   0.01500   0.03600   0.00300   0.00500  -0.00100
O9        0.03600   0.02200   0.01500  -0.00500  -0.00100  -0.00300
O10       0.03600   0.02200   0.01500  -0.00500  -0.00100  -0.00300
O11       0.03600   0.02200   0.01500   0.00500   0.00100  -0.00300
O12       0.03600   0.02200   0.01500   0.00500   0.00100  -0.00300
O13       0.03600   0.02200   0.01500  -0.00500   0.00100   0.00300
O14       0.03600   0.02200   0.01500  -0.00500   0.00100   0.00300
O15       0.03600   0.02200   0.01500   0.00500  -0.00100   0.00300
O16       0.03600   0.02200   0.01500   0.00500  -0.00100   0.00300
O17       0.01500   0.03600   0.02200  -0.00100  -0.00300  -0.00500
O18       0.01500   0.03600   0.02200  -0.00100  -0.00300  -0.00500
O19       0.01500   0.03600   0.02200   0.00100  -0.00300   0.00500
O20       0.01500   0.03600   0.02200   0.00100  -0.00300   0.00500
O21       0.01500   0.03600   0.02200   0.00100   0.00300  -0.00500
O22       0.01500   0.03600   0.02200   0.00100   0.00300  -0.00500
O23       0.01500   0.03600   0.02200  -0.00100   0.00300   0.00500
O24       0.01500   0.03600   0.02200  -0.00100   0.00300   0.00500
O25       0.01500   0.02200   0.03600  -0.00300   0.00100   0.00500
O26       0.01500   0.02200   0.03600  -0.00300   0.00100   0.00500
O27       0.01500   0.02200   0.03600  -0.00300  -0.00100  -0.00500
O28       0.01500   0.02200   0.03600  -0.00300  -0.00100  -0.00500
O29       0.01500   0.02200   0.03600   0.00300  -0.00100   0.00500
O30       0.01500   0.02200   0.03600   0.00300  -0.00100   0.00500
O31       0.01500   0.02200   0.03600   0.00300   0.00100  -0.00500
O32       0.01500   0.02200   0.03600   0.00300   0.00100  -0.00500
O33       0.02200   0.03600   0.01500  -0.00500   0.00300   0.00100
O34       0.02200   0.03600   0.01500  -0.00500   0.00300   0.00100
O35       0.02200   0.03600   0.01500   0.00500   0.00300  -0.00100
O36       0.02200   0.03600   0.01500   0.00500   0.00300  -0.00100
O37       0.02200   0.03600   0.01500  -0.00500  -0.00300  -0.00100
O38       0.02200   0.03600   0.01500  -0.00500  -0.00300  -0.00100
O39       0.02200   0.03600   0.01500   0.00500  -0.00300   0.00100
O40       0.02200   0.03600   0.01500   0.00500  -0.00300   0.00100
O41       0.03600   0.01500   0.02200  -0.00100   0.00500   0.00300
O42       0.03600   0.01500   0.02200  -0.00100   0.00500   0.00300
O43       0.03600   0.01500   0.02200   0.00100  -0.00500   0.00300
O44       0.03600   0.01500   0.02200   0.00100  -0.00500   0.00300
O45       0.03600   0.01500   0.02200   0.00100   0.00500  -0.00300
O46       0.03600   0.01500   0.02200   0.00100   0.00500  -0.00300
O47       0.03600   0.01500   0.02200  -0.00100  -0.00500  -0.00300
O48       0.03600   0.01500   0.02200  -0.00100  -0.00500  -0.00300
Zn49      0.02030   0.02030   0.02030   0.00330  -0.00330  -0.00330
Zn50      0.02030   0.02030   0.02030   0.00330  -0.00330  -0.00330
Zn51      0.02030   0.02030   0.02030   0.00330   0.00330   0.00330
Zn52      0.02030   0.02030   0.02030   0.00330   0.00330   0.00330
Zn53      0.02030   0.02030   0.02030  -0.00330  -0.00330   0.00330
Zn54      0.02030   0.02030   0.02030  -0.00330  -0.00330   0.00330
Zn55      0.02030   0.02030   0.02030  -0.00330   0.00330  -0.00330
Zn56      0.02030   0.02030   0.02030  -0.00330   0.00330  -0.00330
C57       0.02000   0.02000   0.01300  -0.00200   0.00000   0.00000
C58       0.02000   0.02000   0.01300  -0.00200   0.00000   0.00000
C59       0.02000   0.02000   0.01300   0.00200   0.00000   0.00000
C60       0.02000   0.02000   0.01300   0.00200   0.00000   0.00000
C61       0.01300   0.02000   0.02000   0.00000   0.00000  -0.00200
C62       0.01300   0.02000   0.02000   0.00000   0.00000  -0.00200
C63       0.01300   0.02000   0.02000   0.00000   0.00000   0.00200
C64       0.01300   0.02000   0.02000   0.00000   0.00000   0.00200
C65       0.02000   0.01300   0.02000   0.00000  -0.00200   0.00000
C66       0.02000   0.01300   0.02000   0.00000  -0.00200   0.00000
C67       0.02000   0.01300   0.02000   0.00000   0.00200   0.00000
C68       0.02000   0.01300   0.02000   0.00000   0.00200   0.00000
C69       0.02000   0.02000   0.01300  -0.00200   0.00000   0.00000
C70       0.02000   0.02000   0.01300  -0.00200   0.00000   0.00000
C71       0.02000   0.02000   0.01300   0.00200   0.00000   0.00000
C72       0.02000   0.02000   0.01300   0.00200   0.00000   0.00000
C73       0.02000   0.01300   0.02000   0.00000   0.00200   0.00000
C74       0.02000   0.01300   0.02000   0.00000   0.00200   0.00000
C75       0.02000   0.01300   0.02000   0.00000  -0.00200   0.00000
C76       0.02000   0.01300   0.02000   0.00000  -0.00200   0.00000
C77       0.01300   0.02000   0.02000   0.00000   0.00000   0.00200
C78       0.01300   0.02000   0.02000   0.00000   0.00000   0.00200
C79       0.01300   0.02000   0.02000   0.00000   0.00000  -0.00200
C80       0.01300   0.02000   0.02000   0.00000   0.00000  -0.00200
loop_
_geom_bond_atom_site_label_1
_geom_bond_atom_site_label_2
_geom_bond_distance
_geom_bond_site_symmetry_2
_ccdc_geom_bond_type
O1     Zn49    2.100   1_655 S
O1     C57     1.249   .     S
O2     Zn50    2.100   .     S
O2     C69     1.249   .     S
O3     Zn51    2.100   .     S
O3     C58     1.249   .     S
O4     Zn52    2.100   1_455 S
O4     C70     1.249   .     S
O5     Zn53    2.100   1_455 S
O5     C59     1.249   .     S
O6     Zn54    2.100   .     S
O6     C72     1.249   .     S
O7     Zn55    2.100   .     S
O7     C60     1.249   .     S
O8     Zn56    2.100   1_655 S
O8     C71     1.249   .     S
O9     Zn53    2.100   1_565 S
O9     C61     1.249   .     S
O10    Zn54    2.100   .     S
O10    C79     1.249   .     S
O11    Zn51    2.100   .     S
O11    C62     1.249   .     S
O12    Zn52    2.100   1_545 S
O12    C80     1.249   .     S
O13    Zn55    2.100   1_545 S
O13    C63     1.249   .     S
O14    Zn56    2.100   .     S
O14    C78     1.249   .     S
O15    Zn49    2.100   .     S
O15    C64     1.249   .     S
O16    Zn50    2.100   1_565 S
O16    C77     1.249   .     S
O17    Zn55    2.100   1_556 S
O17    C65     1.249   .     S
O18    Zn56    2.100   .     S
O18    C76     1.249   .     S
O19    Zn51    2.100   .     S
O19    C66     1.249   .     S
O20    Zn52    2.100   1_554 S
O20    C75     1.249   .     S
O21    Zn49    2.100   1_554 S
O21    C67     1.249   .     S
O22    Zn50    2.100   .     S
O22    C73     1.249   .     S
O23    Zn53    2.100   .     S
O23    C68     1.249   .     S
O24    Zn54    2.100   1_556 S
O24    C74     1.249   .     S
O25    Zn51    2.100   .     S
O25    C69     1.249   .     S
O26    Zn52    2.100   .     S
O26    C57     1.249   .     S
O27    Zn49    2.100   .     S
O27    C70     1.249   .     S
O28    Zn50    2.100   .     S
O28    C58     1.249   .     S
O29    Zn53    2.100   .     S
O29    C71     1.249   .     S
O30    Zn54    2.100   .     S
O30    C60     1.249   .     S
O31    Zn55    2.100   .     S
O31    C72     1.249   .     S
O32    Zn56    2.100   .     S
O32    C59     1.249   .     S
O33    Zn53    2.100   .     S
O33    C73     1.249   .     S
O34    Zn54    2.100   .     S
O34    C67     1.249   .     S
O35    Zn49    2.100   .     S
O35    C74     1.249   .     S
O36    Zn50    2.100   .     S
O36    C68     1.249   .     S
O37    Zn55    2.100   .     S
O37    C75     1.249   .     S
O38    Zn56    2.100   .     S
O38    C66     1.249   .     S
O39    Zn51    2.100   .     S
O39    C76     1.249   .     S
O40    Zn52    2.100   .     S
O40    C65     1.249   .     S
O41    Zn55    2.100   .     S
O41    C77     1.249   .     S
O42    Zn56    2.100   .     S
O42    C64     1.249   .     S
O43    Zn49    2.100   .     S
O43    C78     1.249   .     S
O44    Zn50    2.100   .     S
O44    C63     1.249   .     S
O45    Zn51    2.100   .     S
O45    C79     1.249   .     S
O46    Zn52    2.100   .     S
O46    C61     1.249   .     S
O47    Zn53    2.100   .     S
O47    C80     1.249   .     S
O48    Zn54    2.100   .     S
O48    C62     1.249   .     S
Zn49   O1      2.100   1_455 S
Zn49   O21     2.100   1_556 S
Zn50   O16     2.100   1_545 S
Zn52   O4      2.100   1_655 S
Zn52   O12     2.100   1_565 S
Zn52   O20     2.100   1_556 S
Zn53   O5      2.100   1_655 S
Zn53   O9      2.100   1_545 S
Zn54   O24     2.100   1_554 S
Zn55   O13     2.100   1_565 S
Zn55   O17     2.100   1_554 S
Zn56   O8      2.100   1_455 S
C57    C70     1.596   1_655 S
C58    C69     1.596   .     S
C59    C71     1.596   1_455 S
C60    C72     1.596   .     S
C61    C80     1.596   1_565 S
C62    C79     1.596   .     S
C63    C77     1.596   1_545 S
C64    C78     1.596   .     S
C65    C75     1.596   1_556 S
C66    C76     1.596   .     S
C67    C74     1.596   1_554 S
C68    C73     1.596   .     S
C70    C57     1.596   1_455 S
C71    C59     1.596   1_655 S
C74    C67     1.596   1_556 S
C75    C65     1.596   1_554 S
C77    C63     1.596   1_565 S
C80    C61     1.596   1_545 S
