data_XORRON_FSR
_audit_creation_date              2024-06-11
_audit_creation_method            'Materials Studio'
_symmetry_space_group_name_H-M    'P1'
_symmetry_Int_Tables_number       1
_symmetry_cell_setting            triclinic
loop_
_symmetry_equiv_pos_as_xyz
  x,y,z
_cell_length_a                    12.8897
_cell_length_b                    12.8897
_cell_length_c                    16.4462
_cell_angle_alpha                 90.0000
_cell_angle_beta                  90.0000
_cell_angle_gamma                 90.0000
loop_
_atom_site_label
_atom_site_type_symbol
_atom_site_fract_x
_atom_site_fract_y
_atom_site_fract_z
_atom_site_U_iso_or_equiv
_atom_site_adp_type
_atom_site_occupancy
Tb1    Tb    0.34840   0.53256   0.92358   0.01497  Uani   1.00
S2     S     0.28658   0.43926   0.71847   0.02210  Uani   1.00
O3     O     0.11070   0.74780   0.54490   0.02800  Uani   1.00
O4     O     0.24190   0.83830   0.49380   0.03867  Uani   1.00
O5     O     0.31420   0.34350   0.67750   0.03467  Uani   1.00
O6     O     0.17540   0.45080   0.73020   0.03033  Uani   1.00
O7     O     0.34490   0.45190   0.79460   0.02300  Uani   1.00
O8     O     0.51700   0.60070   0.93720   0.01567  Uani   1.00
H9     H     0.52730   0.65130   0.90510   0.02400  Uiso   1.00
O10    O     0.34530   0.67940   0.83110   0.04467  Uani   1.00
H11    H     0.31860   0.73590   0.84760   0.06700  Uiso   1.00
H12    H     0.40320   0.69580   0.80990   0.06700  Uiso   1.00
O13    O     0.16460   0.55300   0.87670   0.03367  Uani   1.00
H14    H     0.16810   0.52530   0.82990   0.05100  Uiso   1.00
H15    H     0.10950   0.58710   0.88650   0.05100  Uiso   1.00
C16    C     0.20600   0.76300   0.53230   0.02133  Uani   1.00
C17    C     0.28290   0.68690   0.56690   0.02267  Uani   1.00
C18    C     0.38650   0.69670   0.54740   0.02633  Uani   1.00
H19    H     0.40710   0.74680   0.51010   0.03200  Uiso   1.00
C20    C     0.45980   0.63290   0.58270   0.02667  Uani   1.00
H21    H     0.52980   0.64070   0.57020   0.03200  Uiso   1.00
C22    C     0.42810   0.55810   0.63620   0.01933  Uani   1.00
C23    C     0.32600   0.54110   0.65380   0.01833  Uani   1.00
C24    C     0.25110   0.60910   0.61880   0.02567  Uani   1.00
H25    H     0.18110   0.60110   0.63090   0.03100  Uiso   1.00
Tb26   Tb    0.84840   0.03256   0.42358   0.01497  Uani   1.00
S27    S     0.78658   0.93926   0.21847   0.02210  Uani   1.00
O28    O     0.61070   0.24780   0.04490   0.02800  Uani   1.00
O29    O     0.74190   0.33830   0.99380   0.03867  Uani   1.00
O30    O     0.81420   0.84350   0.17750   0.03467  Uani   1.00
O31    O     0.67540   0.95080   0.23020   0.03033  Uani   1.00
O32    O     0.84490   0.95190   0.29460   0.02300  Uani   1.00
O33    O     0.01700   0.10070   0.43720   0.01567  Uani   1.00
H34    H     0.02730   0.15130   0.40510   0.02400  Uiso   1.00
O35    O     0.84530   0.17940   0.33110   0.04467  Uani   1.00
H36    H     0.81860   0.23590   0.34760   0.06700  Uiso   1.00
H37    H     0.90320   0.19580   0.30990   0.06700  Uiso   1.00
O38    O     0.66460   0.05300   0.37670   0.03367  Uani   1.00
H39    H     0.66810   0.02530   0.32990   0.05100  Uiso   1.00
H40    H     0.60950   0.08710   0.38650   0.05100  Uiso   1.00
C41    C     0.70600   0.26300   0.03230   0.02133  Uani   1.00
C42    C     0.78290   0.18690   0.06690   0.02267  Uani   1.00
C43    C     0.88650   0.19670   0.04740   0.02633  Uani   1.00
H44    H     0.90710   0.24680   0.01010   0.03200  Uiso   1.00
C45    C     0.95980   0.13290   0.08270   0.02667  Uani   1.00
H46    H     0.02980   0.14070   0.07020   0.03200  Uiso   1.00
C47    C     0.92810   0.05810   0.13620   0.01933  Uani   1.00
C48    C     0.82600   0.04110   0.15380   0.01833  Uani   1.00
C49    C     0.75110   0.10910   0.11880   0.02567  Uani   1.00
H50    H     0.68110   0.10110   0.13090   0.03100  Uiso   1.00
Tb51   Tb    0.65160   0.46744   0.92358   0.01497  Uani   1.00
S52    S     0.71342   0.56074   0.71847   0.02210  Uani   1.00
O53    O     0.88930   0.25220   0.54490   0.02800  Uani   1.00
O54    O     0.75810   0.16170   0.49380   0.03867  Uani   1.00
O55    O     0.68580   0.65650   0.67750   0.03467  Uani   1.00
O56    O     0.82460   0.54920   0.73020   0.03033  Uani   1.00
O57    O     0.65510   0.54810   0.79460   0.02300  Uani   1.00
O58    O     0.48300   0.39930   0.93720   0.01567  Uani   1.00
H59    H     0.47270   0.34870   0.90510   0.02400  Uiso   1.00
O60    O     0.65470   0.32060   0.83110   0.04467  Uani   1.00
H61    H     0.68140   0.26410   0.84760   0.06700  Uiso   1.00
H62    H     0.59680   0.30420   0.80990   0.06700  Uiso   1.00
O63    O     0.83540   0.44700   0.87670   0.03367  Uani   1.00
H64    H     0.83190   0.47470   0.82990   0.05100  Uiso   1.00
H65    H     0.89050   0.41290   0.88650   0.05100  Uiso   1.00
C66    C     0.79400   0.23700   0.53230   0.02133  Uani   1.00
C67    C     0.71710   0.31310   0.56690   0.02267  Uani   1.00
C68    C     0.61350   0.30330   0.54740   0.02633  Uani   1.00
H69    H     0.59290   0.25320   0.51010   0.03200  Uiso   1.00
C70    C     0.54020   0.36710   0.58270   0.02667  Uani   1.00
H71    H     0.47020   0.35930   0.57020   0.03200  Uiso   1.00
C72    C     0.57190   0.44190   0.63620   0.01933  Uani   1.00
C73    C     0.67400   0.45890   0.65380   0.01833  Uani   1.00
C74    C     0.74890   0.39090   0.61880   0.02567  Uani   1.00
H75    H     0.81890   0.39890   0.63090   0.03100  Uiso   1.00
Tb76   Tb    0.15160   0.96744   0.42358   0.01497  Uani   1.00
S77    S     0.21342   0.06074   0.21847   0.02210  Uani   1.00
O78    O     0.38930   0.75220   0.04490   0.02800  Uani   1.00
O79    O     0.25810   0.66170   0.99380   0.03867  Uani   1.00
O80    O     0.18580   0.15650   0.17750   0.03467  Uani   1.00
O81    O     0.32460   0.04920   0.23020   0.03033  Uani   1.00
O82    O     0.15510   0.04810   0.29460   0.02300  Uani   1.00
O83    O     0.98300   0.89930   0.43720   0.01567  Uani   1.00
H84    H     0.97270   0.84870   0.40510   0.02400  Uiso   1.00
O85    O     0.15470   0.82060   0.33110   0.04467  Uani   1.00
H86    H     0.18140   0.76410   0.34760   0.06700  Uiso   1.00
H87    H     0.09680   0.80420   0.30990   0.06700  Uiso   1.00
O88    O     0.33540   0.94700   0.37670   0.03367  Uani   1.00
H89    H     0.33190   0.97470   0.32990   0.05100  Uiso   1.00
H90    H     0.39050   0.91290   0.38650   0.05100  Uiso   1.00
C91    C     0.29400   0.73700   0.03230   0.02133  Uani   1.00
C92    C     0.21710   0.81310   0.06690   0.02267  Uani   1.00
C93    C     0.11350   0.80330   0.04740   0.02633  Uani   1.00
H94    H     0.09290   0.75320   0.01010   0.03200  Uiso   1.00
C95    C     0.04020   0.86710   0.08270   0.02667  Uani   1.00
H96    H     0.97020   0.85930   0.07020   0.03200  Uiso   1.00
C97    C     0.07190   0.94190   0.13620   0.01933  Uani   1.00
C98    C     0.17400   0.95890   0.15380   0.01833  Uani   1.00
C99    C     0.24890   0.89090   0.11880   0.02567  Uani   1.00
H100   H     0.31890   0.89890   0.13090   0.03100  Uiso   1.00
Tb101  Tb    0.53256   0.65160   0.07642   0.01497  Uani   1.00
S102   S     0.43926   0.71342   0.28153   0.02210  Uani   1.00
O103   O     0.74780   0.88930   0.45510   0.02800  Uani   1.00
O104   O     0.83830   0.75810   0.50620   0.03867  Uani   1.00
O105   O     0.34350   0.68580   0.32250   0.03467  Uani   1.00
O106   O     0.45080   0.82460   0.26980   0.03033  Uani   1.00
O107   O     0.45190   0.65510   0.20540   0.02300  Uani   1.00
O108   O     0.60070   0.48300   0.06280   0.01567  Uani   1.00
H109   H     0.65130   0.47270   0.09490   0.02400  Uiso   1.00
O110   O     0.67940   0.65470   0.16890   0.04467  Uani   1.00
H111   H     0.73590   0.68140   0.15240   0.06700  Uiso   1.00
H112   H     0.69580   0.59680   0.19010   0.06700  Uiso   1.00
O113   O     0.55300   0.83540   0.12330   0.03367  Uani   1.00
H114   H     0.52530   0.83190   0.17010   0.05100  Uiso   1.00
H115   H     0.58710   0.89050   0.11350   0.05100  Uiso   1.00
C116   C     0.76300   0.79400   0.46770   0.02133  Uani   1.00
C117   C     0.68690   0.71710   0.43310   0.02267  Uani   1.00
C118   C     0.69670   0.61350   0.45260   0.02633  Uani   1.00
H119   H     0.74680   0.59290   0.48990   0.03200  Uiso   1.00
C120   C     0.63290   0.54020   0.41730   0.02667  Uani   1.00
H121   H     0.64070   0.47020   0.42980   0.03200  Uiso   1.00
C122   C     0.55810   0.57190   0.36380   0.01933  Uani   1.00
C123   C     0.54110   0.67400   0.34620   0.01833  Uani   1.00
C124   C     0.60910   0.74890   0.38120   0.02567  Uani   1.00
H125   H     0.60110   0.81890   0.36910   0.03100  Uiso   1.00
Tb126  Tb    0.03256   0.15160   0.57642   0.01497  Uani   1.00
S127   S     0.93926   0.21342   0.78153   0.02210  Uani   1.00
O128   O     0.24780   0.38930   0.95510   0.02800  Uani   1.00
O129   O     0.33830   0.25810   0.00620   0.03867  Uani   1.00
O130   O     0.84350   0.18580   0.82250   0.03467  Uani   1.00
O131   O     0.95080   0.32460   0.76980   0.03033  Uani   1.00
O132   O     0.95190   0.15510   0.70540   0.02300  Uani   1.00
O133   O     0.10070   0.98300   0.56280   0.01567  Uani   1.00
H134   H     0.15130   0.97270   0.59490   0.02400  Uiso   1.00
O135   O     0.17940   0.15470   0.66890   0.04467  Uani   1.00
H136   H     0.23590   0.18140   0.65240   0.06700  Uiso   1.00
H137   H     0.19580   0.09680   0.69010   0.06700  Uiso   1.00
O138   O     0.05300   0.33540   0.62330   0.03367  Uani   1.00
H139   H     0.02530   0.33190   0.67010   0.05100  Uiso   1.00
H140   H     0.08710   0.39050   0.61350   0.05100  Uiso   1.00
C141   C     0.26300   0.29400   0.96770   0.02133  Uani   1.00
C142   C     0.18690   0.21710   0.93310   0.02267  Uani   1.00
C143   C     0.19670   0.11350   0.95260   0.02633  Uani   1.00
H144   H     0.24680   0.09290   0.98990   0.03200  Uiso   1.00
C145   C     0.13290   0.04020   0.91730   0.02667  Uani   1.00
H146   H     0.14070   0.97020   0.92980   0.03200  Uiso   1.00
C147   C     0.05810   0.07190   0.86380   0.01933  Uani   1.00
C148   C     0.04110   0.17400   0.84620   0.01833  Uani   1.00
C149   C     0.10910   0.24890   0.88120   0.02567  Uani   1.00
H150   H     0.10110   0.31890   0.86910   0.03100  Uiso   1.00
Tb151  Tb    0.46744   0.34840   0.07642   0.01497  Uani   1.00
S152   S     0.56074   0.28658   0.28153   0.02210  Uani   1.00
O153   O     0.25220   0.11070   0.45510   0.02800  Uani   1.00
O154   O     0.16170   0.24190   0.50620   0.03867  Uani   1.00
O155   O     0.65650   0.31420   0.32250   0.03467  Uani   1.00
O156   O     0.54920   0.17540   0.26980   0.03033  Uani   1.00
O157   O     0.54810   0.34490   0.20540   0.02300  Uani   1.00
O158   O     0.39930   0.51700   0.06280   0.01567  Uani   1.00
H159   H     0.34870   0.52730   0.09490   0.02400  Uiso   1.00
O160   O     0.32060   0.34530   0.16890   0.04467  Uani   1.00
H161   H     0.26410   0.31860   0.15240   0.06700  Uiso   1.00
H162   H     0.30420   0.40320   0.19010   0.06700  Uiso   1.00
O163   O     0.44700   0.16460   0.12330   0.03367  Uani   1.00
H164   H     0.47470   0.16810   0.17010   0.05100  Uiso   1.00
H165   H     0.41290   0.10950   0.11350   0.05100  Uiso   1.00
C166   C     0.23700   0.20600   0.46770   0.02133  Uani   1.00
C167   C     0.31310   0.28290   0.43310   0.02267  Uani   1.00
C168   C     0.30330   0.38650   0.45260   0.02633  Uani   1.00
H169   H     0.25320   0.40710   0.48990   0.03200  Uiso   1.00
C170   C     0.36710   0.45980   0.41730   0.02667  Uani   1.00
H171   H     0.35930   0.52980   0.42980   0.03200  Uiso   1.00
C172   C     0.44190   0.42810   0.36380   0.01933  Uani   1.00
C173   C     0.45890   0.32600   0.34620   0.01833  Uani   1.00
C174   C     0.39090   0.25110   0.38120   0.02567  Uani   1.00
H175   H     0.39890   0.18110   0.36910   0.03100  Uiso   1.00
Tb176  Tb    0.96744   0.84840   0.57642   0.01497  Uani   1.00
S177   S     0.06074   0.78658   0.78153   0.02210  Uani   1.00
O178   O     0.75220   0.61070   0.95510   0.02800  Uani   1.00
O179   O     0.66170   0.74190   0.00620   0.03867  Uani   1.00
O180   O     0.15650   0.81420   0.82250   0.03467  Uani   1.00
O181   O     0.04920   0.67540   0.76980   0.03033  Uani   1.00
O182   O     0.04810   0.84490   0.70540   0.02300  Uani   1.00
O183   O     0.89930   0.01700   0.56280   0.01567  Uani   1.00
H184   H     0.84870   0.02730   0.59490   0.02400  Uiso   1.00
O185   O     0.82060   0.84530   0.66890   0.04467  Uani   1.00
H186   H     0.76410   0.81860   0.65240   0.06700  Uiso   1.00
H187   H     0.80420   0.90320   0.69010   0.06700  Uiso   1.00
O188   O     0.94700   0.66460   0.62330   0.03367  Uani   1.00
H189   H     0.97470   0.66810   0.67010   0.05100  Uiso   1.00
H190   H     0.91290   0.60950   0.61350   0.05100  Uiso   1.00
C191   C     0.73700   0.70600   0.96770   0.02133  Uani   1.00
C192   C     0.81310   0.78290   0.93310   0.02267  Uani   1.00
C193   C     0.80330   0.88650   0.95260   0.02633  Uani   1.00
H194   H     0.75320   0.90710   0.98990   0.03200  Uiso   1.00
C195   C     0.86710   0.95980   0.91730   0.02667  Uani   1.00
H196   H     0.85930   0.02980   0.92980   0.03200  Uiso   1.00
C197   C     0.94190   0.92810   0.86380   0.01933  Uani   1.00
C198   C     0.95890   0.82600   0.84620   0.01833  Uani   1.00
C199   C     0.89090   0.75110   0.88120   0.02567  Uani   1.00
H200   H     0.89890   0.68110   0.86910   0.03100  Uiso   1.00
O201   O     0.50000   0.50000   0.67900   0.02467  Uani   1.00
O202   O    -0.00000  -0.00000   0.17900   0.02467  Uani   1.00
O203   O     0.50000   0.50000   0.32100   0.02467  Uani   1.00
O204   O    -0.00000   0.00000   0.82100   0.02467  Uani   1.00
loop_
_atom_site_aniso_label
_atom_site_aniso_U_11
_atom_site_aniso_U_22
_atom_site_aniso_U_33
_atom_site_aniso_U_12
_atom_site_aniso_U_13
_atom_site_aniso_U_23
Tb1       0.01575   0.01343   0.01574   0.00127  -0.00333  -0.00111
S2        0.02810   0.01850   0.01970  -0.00390  -0.00540   0.00060
O3        0.02200   0.03000   0.03200   0.01200   0.00300   0.00300
O4        0.03200   0.04500   0.03900   0.01100   0.01300   0.02400
O5        0.05700   0.01500   0.03200  -0.00500  -0.00200  -0.00500
O6        0.02200   0.04300   0.02600  -0.01000  -0.00200   0.00500
O7        0.02600   0.02700   0.01600   0.00600  -0.00200  -0.00100
O8        0.02100   0.01200   0.01400   0.00300   0.00200   0.00300
O10       0.04900   0.03400   0.05100   0.00000  -0.00500   0.01800
O13       0.02500   0.04700   0.02900   0.01100  -0.00700  -0.00800
C16       0.02900   0.03100   0.00400   0.01100  -0.00100   0.00500
C17       0.02500   0.02200   0.02100   0.01000   0.00300   0.00500
C18       0.02600   0.02200   0.03100   0.00100   0.01100   0.00700
C20       0.02100   0.03000   0.02900   0.00700   0.00000   0.00000
C22       0.02500   0.01900   0.01400   0.00400   0.00500  -0.00400
C23       0.02100   0.01900   0.01500   0.00500   0.00000   0.00600
C24       0.01900   0.03200   0.02600   0.00100  -0.00300   0.00200
Tb26      0.01575   0.01343   0.01574   0.00127  -0.00333  -0.00111
S27       0.02810   0.01850   0.01970  -0.00390  -0.00540   0.00060
O28       0.02200   0.03000   0.03200   0.01200   0.00300   0.00300
O29       0.03200   0.04500   0.03900   0.01100   0.01300   0.02400
O30       0.05700   0.01500   0.03200  -0.00500  -0.00200  -0.00500
O31       0.02200   0.04300   0.02600  -0.01000  -0.00200   0.00500
O32       0.02600   0.02700   0.01600   0.00600  -0.00200  -0.00100
O33       0.02100   0.01200   0.01400   0.00300   0.00200   0.00300
O35       0.04900   0.03400   0.05100   0.00000  -0.00500   0.01800
O38       0.02500   0.04700   0.02900   0.01100  -0.00700  -0.00800
C41       0.02900   0.03100   0.00400   0.01100  -0.00100   0.00500
C42       0.02500   0.02200   0.02100   0.01000   0.00300   0.00500
C43       0.02600   0.02200   0.03100   0.00100   0.01100   0.00700
C45       0.02100   0.03000   0.02900   0.00700   0.00000   0.00000
C47       0.02500   0.01900   0.01400   0.00400   0.00500  -0.00400
C48       0.02100   0.01900   0.01500   0.00500   0.00000   0.00600
C49       0.01900   0.03200   0.02600   0.00100  -0.00300   0.00200
Tb51      0.01575   0.01343   0.01574   0.00127   0.00333   0.00111
S52       0.02810   0.01850   0.01970  -0.00390   0.00540  -0.00060
O53       0.02200   0.03000   0.03200   0.01200  -0.00300  -0.00300
O54       0.03200   0.04500   0.03900   0.01100  -0.01300  -0.02400
O55       0.05700   0.01500   0.03200  -0.00500   0.00200   0.00500
O56       0.02200   0.04300   0.02600  -0.01000   0.00200  -0.00500
O57       0.02600   0.02700   0.01600   0.00600   0.00200   0.00100
O58       0.02100   0.01200   0.01400   0.00300  -0.00200  -0.00300
O60       0.04900   0.03400   0.05100   0.00000   0.00500  -0.01800
O63       0.02500   0.04700   0.02900   0.01100   0.00700   0.00800
C66       0.02900   0.03100   0.00400   0.01100   0.00100  -0.00500
C67       0.02500   0.02200   0.02100   0.01000  -0.00300  -0.00500
C68       0.02600   0.02200   0.03100   0.00100  -0.01100  -0.00700
C70       0.02100   0.03000   0.02900   0.00700   0.00000   0.00000
C72       0.02500   0.01900   0.01400   0.00400  -0.00500   0.00400
C73       0.02100   0.01900   0.01500   0.00500   0.00000  -0.00600
C74       0.01900   0.03200   0.02600   0.00100   0.00300  -0.00200
Tb76      0.01575   0.01343   0.01574   0.00127   0.00333   0.00111
S77       0.02810   0.01850   0.01970  -0.00390   0.00540  -0.00060
O78       0.02200   0.03000   0.03200   0.01200  -0.00300  -0.00300
O79       0.03200   0.04500   0.03900   0.01100  -0.01300  -0.02400
O80       0.05700   0.01500   0.03200  -0.00500   0.00200   0.00500
O81       0.02200   0.04300   0.02600  -0.01000   0.00200  -0.00500
O82       0.02600   0.02700   0.01600   0.00600   0.00200   0.00100
O83       0.02100   0.01200   0.01400   0.00300  -0.00200  -0.00300
O85       0.04900   0.03400   0.05100   0.00000   0.00500  -0.01800
O88       0.02500   0.04700   0.02900   0.01100   0.00700   0.00800
C91       0.02900   0.03100   0.00400   0.01100   0.00100  -0.00500
C92       0.02500   0.02200   0.02100   0.01000  -0.00300  -0.00500
C93       0.02600   0.02200   0.03100   0.00100  -0.01100  -0.00700
C95       0.02100   0.03000   0.02900   0.00700   0.00000   0.00000
C97       0.02500   0.01900   0.01400   0.00400  -0.00500   0.00400
C98       0.02100   0.01900   0.01500   0.00500   0.00000  -0.00600
C99       0.01900   0.03200   0.02600   0.00100   0.00300  -0.00200
Tb101     0.01343   0.01575   0.01574  -0.00127   0.00111  -0.00333
S102      0.01850   0.02810   0.01970   0.00390  -0.00060  -0.00540
O103      0.03000   0.02200   0.03200  -0.01200  -0.00300   0.00300
O104      0.04500   0.03200   0.03900  -0.01100  -0.02400   0.01300
O105      0.01500   0.05700   0.03200   0.00500   0.00500  -0.00200
O106      0.04300   0.02200   0.02600   0.01000  -0.00500  -0.00200
O107      0.02700   0.02600   0.01600  -0.00600   0.00100  -0.00200
O108      0.01200   0.02100   0.01400  -0.00300  -0.00300   0.00200
O110      0.03400   0.04900   0.05100   0.00000  -0.01800  -0.00500
O113      0.04700   0.02500   0.02900  -0.01100   0.00800  -0.00700
C116      0.03100   0.02900   0.00400  -0.01100  -0.00500  -0.00100
C117      0.02200   0.02500   0.02100  -0.01000  -0.00500   0.00300
C118      0.02200   0.02600   0.03100  -0.00100  -0.00700   0.01100
C120      0.03000   0.02100   0.02900  -0.00700   0.00000   0.00000
C122      0.01900   0.02500   0.01400  -0.00400   0.00400   0.00500
C123      0.01900   0.02100   0.01500  -0.00500  -0.00600   0.00000
C124      0.03200   0.01900   0.02600  -0.00100  -0.00200  -0.00300
Tb126     0.01343   0.01575   0.01574  -0.00127   0.00111  -0.00333
S127      0.01850   0.02810   0.01970   0.00390  -0.00060  -0.00540
O128      0.03000   0.02200   0.03200  -0.01200  -0.00300   0.00300
O129      0.04500   0.03200   0.03900  -0.01100  -0.02400   0.01300
O130      0.01500   0.05700   0.03200   0.00500   0.00500  -0.00200
O131      0.04300   0.02200   0.02600   0.01000  -0.00500  -0.00200
O132      0.02700   0.02600   0.01600  -0.00600   0.00100  -0.00200
O133      0.01200   0.02100   0.01400  -0.00300  -0.00300   0.00200
O135      0.03400   0.04900   0.05100   0.00000  -0.01800  -0.00500
O138      0.04700   0.02500   0.02900  -0.01100   0.00800  -0.00700
C141      0.03100   0.02900   0.00400  -0.01100  -0.00500  -0.00100
C142      0.02200   0.02500   0.02100  -0.01000  -0.00500   0.00300
C143      0.02200   0.02600   0.03100  -0.00100  -0.00700   0.01100
C145      0.03000   0.02100   0.02900  -0.00700   0.00000   0.00000
C147      0.01900   0.02500   0.01400  -0.00400   0.00400   0.00500
C148      0.01900   0.02100   0.01500  -0.00500  -0.00600   0.00000
C149      0.03200   0.01900   0.02600  -0.00100  -0.00200  -0.00300
Tb151     0.01343   0.01575   0.01574  -0.00127  -0.00111   0.00333
S152      0.01850   0.02810   0.01970   0.00390   0.00060   0.00540
O153      0.03000   0.02200   0.03200  -0.01200   0.00300  -0.00300
O154      0.04500   0.03200   0.03900  -0.01100   0.02400  -0.01300
O155      0.01500   0.05700   0.03200   0.00500  -0.00500   0.00200
O156      0.04300   0.02200   0.02600   0.01000   0.00500   0.00200
O157      0.02700   0.02600   0.01600  -0.00600  -0.00100   0.00200
O158      0.01200   0.02100   0.01400  -0.00300   0.00300  -0.00200
O160      0.03400   0.04900   0.05100   0.00000   0.01800   0.00500
O163      0.04700   0.02500   0.02900  -0.01100  -0.00800   0.00700
C166      0.03100   0.02900   0.00400  -0.01100   0.00500   0.00100
C167      0.02200   0.02500   0.02100  -0.01000   0.00500  -0.00300
C168      0.02200   0.02600   0.03100  -0.00100   0.00700  -0.01100
C170      0.03000   0.02100   0.02900  -0.00700   0.00000   0.00000
C172      0.01900   0.02500   0.01400  -0.00400  -0.00400  -0.00500
C173      0.01900   0.02100   0.01500  -0.00500   0.00600   0.00000
C174      0.03200   0.01900   0.02600  -0.00100   0.00200   0.00300
Tb176     0.01343   0.01575   0.01574  -0.00127  -0.00111   0.00333
S177      0.01850   0.02810   0.01970   0.00390   0.00060   0.00540
O178      0.03000   0.02200   0.03200  -0.01200   0.00300  -0.00300
O179      0.04500   0.03200   0.03900  -0.01100   0.02400  -0.01300
O180      0.01500   0.05700   0.03200   0.00500  -0.00500   0.00200
O181      0.04300   0.02200   0.02600   0.01000   0.00500   0.00200
O182      0.02700   0.02600   0.01600  -0.00600  -0.00100   0.00200
O183      0.01200   0.02100   0.01400  -0.00300   0.00300  -0.00200
O185      0.03400   0.04900   0.05100   0.00000   0.01800   0.00500
O188      0.04700   0.02500   0.02900  -0.01100  -0.00800   0.00700
C191      0.03100   0.02900   0.00400  -0.01100   0.00500   0.00100
C192      0.02200   0.02500   0.02100  -0.01000   0.00500  -0.00300
C193      0.02200   0.02600   0.03100  -0.00100   0.00700  -0.01100
C195      0.03000   0.02100   0.02900  -0.00700   0.00000   0.00000
C197      0.01900   0.02500   0.01400  -0.00400  -0.00400  -0.00500
C198      0.01900   0.02100   0.01500  -0.00500   0.00600   0.00000
C199      0.03200   0.01900   0.02600  -0.00100   0.00200   0.00300
O201      0.01800   0.03700   0.01900   0.01900   0.00000   0.00000
O202      0.01800   0.03700   0.01900   0.01900   0.00000   0.00000
O203      0.03700   0.01800   0.01900  -0.01900   0.00000   0.00000
O204      0.03700   0.01800   0.01900  -0.01900   0.00000   0.00000
loop_
_geom_bond_atom_site_label_1
_geom_bond_atom_site_label_2
_geom_bond_distance
_geom_bond_site_symmetry_2
_ccdc_geom_bond_type
Tb1    O7      2.363   .     S
Tb1    O8      2.355   .     S
Tb1    O10     2.428   .     S
Tb1    O13     2.505   .     S
Tb1    O128    2.315   .     S
Tb1    O79     2.337   .     S
Tb1    O58     2.452   .     S
Tb1    O158    2.390   1_556 S
S2     O5      1.451   .     S
S2     O6      1.454   .     S
S2     O7      1.469   .     S
S2     C23     1.764   .     S
O3     C16     1.261   .     S
O3     Tb176   2.315   1_455 S
O4     C16     1.248   .     S
O4     Tb76    2.337   .     S
O8     H9      0.850   .     S
O8     Tb101   2.390   1_556 S
O8     Tb51    2.452   .     S
O10    H11     0.850   .     S
O10    H12     0.850   .     S
O13    H14     0.850   .     S
O13    H15     0.851   .     S
C16    C17     1.506   .     S
C17    C18     1.379   .     S
C17    C24     1.379   .     S
C18    H19     0.929   .     S
C18    C20     1.381   .     S
C20    H21     0.931   .     S
C20    C22     1.368   .     S
C22    O201    1.384   .     S
C22    C23     1.365   .     S
C23    C24     1.425   .     S
C24    H25     0.930   .     S
Tb26   O32     2.363   1_545 S
Tb26   O33     2.355   1_655 S
Tb26   O35     2.428   .     S
Tb26   O38     2.505   .     S
Tb26   O103    2.315   1_545 S
Tb26   O54     2.337   .     S
Tb26   O83     2.452   1_545 S
Tb26   O183    2.390   .     S
S27    O30     1.451   .     S
S27    O31     1.454   .     S
S27    O32     1.469   .     S
S27    C48     1.764   1_565 S
O28    C41     1.261   .     S
O28    Tb151   2.315   .     S
O29    C41     1.248   1_556 S
O29    Tb51    2.337   .     S
O32    Tb26    2.363   1_565 S
O33    Tb26    2.355   1_455 S
O33    H34     0.850   .     S
O33    Tb126   2.390   .     S
O33    Tb76    2.452   1_545 S
O35    H36     0.850   .     S
O35    H37     0.850   .     S
O38    H39     0.850   .     S
O38    H40     0.851   .     S
C41    O29     1.248   1_554 S
C41    C42     1.506   .     S
C42    C43     1.379   .     S
C42    C49     1.379   .     S
C43    H44     0.929   .     S
C43    C45     1.381   .     S
C45    H46     0.931   1_655 S
C45    C47     1.368   .     S
H46    C45     0.931   1_455 S
C47    O202    1.384   1_655 S
C47    C48     1.365   .     S
C48    S27     1.764   1_545 S
C48    C49     1.425   .     S
C49    H50     0.930   .     S
Tb51   O57     2.363   .     S
Tb51   O58     2.355   .     S
Tb51   O60     2.428   .     S
Tb51   O63     2.505   .     S
Tb51   O178    2.315   .     S
Tb51   O108    2.390   1_556 S
S52    O55     1.451   .     S
S52    O56     1.454   .     S
S52    O57     1.469   .     S
S52    C73     1.764   .     S
O53    C66     1.261   .     S
O53    Tb126   2.315   1_655 S
O54    C66     1.248   .     S
O58    H59     0.850   .     S
O58    Tb151   2.390   1_556 S
O60    H61     0.850   .     S
O60    H62     0.850   .     S
O63    H64     0.850   .     S
O63    H65     0.851   .     S
C66    C67     1.506   .     S
C67    C68     1.379   .     S
C67    C74     1.379   .     S
C68    H69     0.929   .     S
C68    C70     1.381   .     S
C70    H71     0.931   .     S
C70    C72     1.368   .     S
C72    O201    1.384   .     S
C72    C73     1.365   .     S
C73    C74     1.425   .     S
C74    H75     0.930   .     S
Tb76   O82     2.363   1_565 S
Tb76   O83     2.355   1_455 S
Tb76   O85     2.428   .     S
Tb76   O88     2.505   .     S
Tb76   O153    2.315   1_565 S
Tb76   O33     2.452   1_565 S
Tb76   O133    2.390   .     S
S77    O80     1.451   .     S
S77    O81     1.454   .     S
S77    O82     1.469   .     S
S77    C98     1.764   1_545 S
O78    C91     1.261   .     S
O78    Tb101   2.315   .     S
O79    C91     1.248   1_556 S
O82    Tb76    2.363   1_545 S
O83    Tb76    2.355   1_655 S
O83    H84     0.850   .     S
O83    Tb176   2.390   .     S
O83    Tb26    2.452   1_565 S
O85    H86     0.850   .     S
O85    H87     0.850   .     S
O88    H89     0.850   .     S
O88    H90     0.851   .     S
C91    O79     1.248   1_554 S
C91    C92     1.506   .     S
C92    C93     1.379   .     S
C92    C99     1.379   .     S
C93    H94     0.929   .     S
C93    C95     1.381   .     S
C95    H96     0.931   1_455 S
C95    C97     1.368   .     S
H96    C95     0.931   1_655 S
C97    O202    1.384   1_565 S
C97    C98     1.365   .     S
C98    S77     1.764   1_565 S
C98    C99     1.425   .     S
C99    H100    0.930   .     S
Tb101  O107    2.363   .     S
Tb101  O108    2.355   .     S
Tb101  O110    2.428   .     S
Tb101  O113    2.505   .     S
Tb101  O179    2.337   .     S
Tb101  O158    2.452   .     S
Tb101  O8      2.390   1_554 S
S102   O105    1.451   .     S
S102   O106    1.454   .     S
S102   O107    1.469   .     S
S102   C123    1.764   .     S
O103   C116    1.261   .     S
O103   Tb26    2.315   1_565 S
O104   C116    1.248   .     S
O104   Tb176   2.337   .     S
O108   H109    0.850   .     S
O108   Tb51    2.390   1_554 S
O108   Tb151   2.452   .     S
O110   H111    0.850   .     S
O110   H112    0.850   .     S
O113   H114    0.850   .     S
O113   H115    0.851   .     S
C116   C117    1.506   .     S
C117   C118    1.379   .     S
C117   C124    1.379   .     S
C118   H119    0.929   .     S
C118   C120    1.381   .     S
C120   H121    0.931   .     S
C120   C122    1.368   .     S
C122   O203    1.384   .     S
C122   C123    1.365   .     S
C123   C124    1.425   .     S
C124   H125    0.930   .     S
Tb126  O132    2.363   1_455 S
Tb126  O133    2.355   1_545 S
Tb126  O135    2.428   .     S
Tb126  O138    2.505   .     S
Tb126  O53     2.315   1_455 S
Tb126  O154    2.337   .     S
Tb126  O183    2.452   1_455 S
S127   O130    1.451   .     S
S127   O131    1.454   .     S
S127   O132    1.469   .     S
S127   C148    1.764   1_655 S
O128   C141    1.261   .     S
O129   C141    1.248   1_554 S
O129   Tb151   2.337   .     S
O132   Tb126   2.363   1_655 S
O133   Tb126   2.355   1_565 S
O133   H134    0.850   .     S
O133   Tb176   2.452   1_455 S
O135   H136    0.850   .     S
O135   H137    0.850   .     S
O138   H139    0.850   .     S
O138   H140    0.851   .     S
C141   O129    1.248   1_556 S
C141   C142    1.506   .     S
C142   C143    1.379   .     S
C142   C149    1.379   .     S
C143   H144    0.929   .     S
C143   C145    1.381   .     S
C145   H146    0.931   1_545 S
C145   C147    1.368   .     S
H146   C145    0.931   1_565 S
C147   O204    1.384   .     S
C147   C148    1.365   .     S
C148   S127    1.764   1_455 S
C148   C149    1.425   .     S
C149   H150    0.930   .     S
Tb151  O157    2.363   .     S
Tb151  O158    2.355   .     S
Tb151  O160    2.428   .     S
Tb151  O163    2.505   .     S
Tb151  O58     2.390   1_554 S
S152   O155    1.451   .     S
S152   O156    1.454   .     S
S152   O157    1.469   .     S
S152   C173    1.764   .     S
O153   C166    1.261   .     S
O153   Tb76    2.315   1_545 S
O154   C166    1.248   .     S
O158   H159    0.850   .     S
O158   Tb1     2.390   1_554 S
O160   H161    0.850   .     S
O160   H162    0.850   .     S
O163   H164    0.850   .     S
O163   H165    0.851   .     S
C166   C167    1.506   .     S
C167   C168    1.379   .     S
C167   C174    1.379   .     S
C168   H169    0.929   .     S
C168   C170    1.381   .     S
C170   H171    0.931   .     S
C170   C172    1.368   .     S
C172   O203    1.384   .     S
C172   C173    1.365   .     S
C173   C174    1.425   .     S
C174   H175    0.930   .     S
Tb176  O182    2.363   1_655 S
Tb176  O183    2.355   1_565 S
Tb176  O185    2.428   .     S
Tb176  O188    2.505   .     S
Tb176  O3      2.315   1_655 S
Tb176  O133    2.452   1_655 S
S177   O180    1.451   .     S
S177   O181    1.454   .     S
S177   O182    1.469   .     S
S177   C198    1.764   1_455 S
O178   C191    1.261   .     S
O179   C191    1.248   1_554 S
O182   Tb176   2.363   1_455 S
O183   Tb176   2.355   1_545 S
O183   H184    0.850   .     S
O183   Tb126   2.452   1_655 S
O185   H186    0.850   .     S
O185   H187    0.850   .     S
O188   H189    0.850   .     S
O188   H190    0.851   .     S
C191   O179    1.248   1_556 S
C191   C192    1.506   .     S
C192   C193    1.379   .     S
C192   C199    1.379   .     S
C193   H194    0.929   .     S
C193   C195    1.381   .     S
C195   H196    0.931   1_565 S
C195   C197    1.368   .     S
H196   C195    0.931   1_545 S
C197   O204    1.384   1_665 S
C197   C198    1.365   .     S
C198   S177    1.764   1_655 S
C198   C199    1.425   .     S
C199   H200    0.930   .     S
O202   C47     1.384   1_455 S
O202   C97     1.384   1_545 S
O204   C197    1.384   1_445 S
