data_XUGMET_FSR
_audit_creation_date              2024-06-11
_audit_creation_method            'Materials Studio'
_symmetry_space_group_name_H-M    'P1'
_symmetry_Int_Tables_number       1
_symmetry_cell_setting            triclinic
loop_
_symmetry_equiv_pos_as_xyz
  x,y,z
_cell_length_a                    9.7230
_cell_length_b                    14.0610
_cell_length_c                    7.1516
_cell_angle_alpha                 90.0000
_cell_angle_beta                  97.9200
_cell_angle_gamma                 90.0000
loop_
_atom_site_label
_atom_site_type_symbol
_atom_site_fract_x
_atom_site_fract_y
_atom_site_fract_z
_atom_site_U_iso_or_equiv
_atom_site_adp_type
_atom_site_occupancy
S1     S    -0.44300   0.13700   0.15600   0.00000  Uiso   1.00
C2     C    -0.29600   0.08400   0.12300   0.00000  Uiso   1.00
N3     N    -0.19500   0.04900   0.09900   0.00000  Uiso   1.00
O4     O     0.13000   0.49700   0.79300   0.00000  Uiso   1.00
C5     C     0.20200   0.43800   0.89000   0.00000  Uiso   1.00
O6     O     0.31900   0.45400   0.97900   0.00000  Uiso   1.00
C7     C     0.13800   0.34000   0.90700   0.00000  Uiso   1.00
C8     C     0.00700   0.31700   0.94700   0.00000  Uiso   1.00
C9     C    -0.02900   0.22300   0.96300   0.00000  Uiso   1.00
N10    N     0.06200   0.15300   0.94000   0.00000  Uiso   1.00
C11    C     0.18900   0.17400   0.90200   0.00000  Uiso   1.00
C12    C     0.22900   0.26700   0.88500   0.00000  Uiso   1.00
H13    H    -0.05895   0.36663   0.96318   0.00000  Uiso   1.00
H14    H    -0.11959   0.20691   0.99060   0.00000  Uiso   1.00
H15    H     0.25338   0.12338   0.88600   0.00000  Uiso   1.00
H16    H     0.32055   0.28153   0.85671   0.00000  Uiso   1.00
S17    S     0.44300   0.63700   0.34400   0.00000  Uiso   1.00
C18    C     0.29600   0.58400   0.37700   0.00000  Uiso   1.00
N19    N     0.19500   0.54900   0.40100   0.00000  Uiso   1.00
O20    O    -0.13000   0.99700   0.70700   0.00000  Uiso   1.00
C21    C    -0.20200   0.93800   0.61000   0.00000  Uiso   1.00
O22    O    -0.31900   0.95400   0.52100   0.00000  Uiso   1.00
C23    C    -0.13800   0.84000   0.59300   0.00000  Uiso   1.00
C24    C    -0.00700   0.81700   0.55300   0.00000  Uiso   1.00
C25    C     0.02900   0.72300   0.53700   0.00000  Uiso   1.00
N26    N    -0.06200   0.65300   0.56000   0.00000  Uiso   1.00
C27    C    -0.18900   0.67400   0.59800   0.00000  Uiso   1.00
C28    C    -0.22900   0.76700   0.61500   0.00000  Uiso   1.00
H29    H     0.05895   0.86663   0.53682   0.00000  Uiso   1.00
H30    H     0.11959   0.70691   0.50940   0.00000  Uiso   1.00
H31    H    -0.25338   0.62338   0.61400   0.00000  Uiso   1.00
H32    H    -0.32055   0.78153   0.64329   0.00000  Uiso   1.00
S33    S     0.44300   0.86300   0.84400   0.00000  Uiso   1.00
C34    C     0.29600   0.91600   0.87700   0.00000  Uiso   1.00
N35    N     0.19500   0.95100   0.90100   0.00000  Uiso   1.00
O36    O    -0.13000   0.50300   0.20700   0.00000  Uiso   1.00
C37    C    -0.20200   0.56200   0.11000   0.00000  Uiso   1.00
O38    O    -0.31900   0.54600   0.02100   0.00000  Uiso   1.00
C39    C    -0.13800   0.66000   0.09300   0.00000  Uiso   1.00
C40    C    -0.00700   0.68300   0.05300   0.00000  Uiso   1.00
C41    C     0.02900   0.77700   0.03700   0.00000  Uiso   1.00
N42    N    -0.06200   0.84700   0.06000   0.00000  Uiso   1.00
C43    C    -0.18900   0.82600   0.09800   0.00000  Uiso   1.00
C44    C    -0.22900   0.73300   0.11500   0.00000  Uiso   1.00
H45    H     0.05895   0.63337   0.03682   0.00000  Uiso   1.00
H46    H     0.11959   0.79309   0.00940   0.00000  Uiso   1.00
H47    H    -0.25338   0.87662   0.11400   0.00000  Uiso   1.00
H48    H    -0.32055   0.71847   0.14329   0.00000  Uiso   1.00
S49    S    -0.44300   0.36300   0.65600   0.00000  Uiso   1.00
C50    C    -0.29600   0.41600   0.62300   0.00000  Uiso   1.00
N51    N    -0.19500   0.45100   0.59900   0.00000  Uiso   1.00
O52    O     0.13000   0.00300   0.29300   0.00000  Uiso   1.00
C53    C     0.20200   0.06200   0.39000   0.00000  Uiso   1.00
O54    O     0.31900   0.04600   0.47900   0.00000  Uiso   1.00
C55    C     0.13800   0.16000   0.40700   0.00000  Uiso   1.00
C56    C     0.00700   0.18300   0.44700   0.00000  Uiso   1.00
C57    C    -0.02900   0.27700   0.46300   0.00000  Uiso   1.00
N58    N     0.06200   0.34700   0.44000   0.00000  Uiso   1.00
C59    C     0.18900   0.32600   0.40200   0.00000  Uiso   1.00
C60    C     0.22900   0.23300   0.38500   0.00000  Uiso   1.00
H61    H    -0.05895   0.13337   0.46318   0.00000  Uiso   1.00
H62    H    -0.11959   0.29309   0.49060   0.00000  Uiso   1.00
H63    H     0.25338   0.37662   0.38600   0.00000  Uiso   1.00
H64    H     0.32055   0.21847   0.35671   0.00000  Uiso   1.00
Mn65   Mn    0.00000   0.00000   0.00000   0.00000  Uiso   1.00
Mn66   Mn    0.00000   0.50000   0.50000   0.00000  Uiso   1.00
loop_
_geom_bond_atom_site_label_1
_geom_bond_atom_site_label_2
_geom_bond_distance
_geom_bond_site_symmetry_2
_ccdc_geom_bond_type
S1     C2      1.657   .     S
C2     N3      1.132   .     S
N3     Mn65    2.223   .     S
O4     C5      1.235   .     S
O4     Mn66    2.294   .     S
C5     O6      1.245   .     S
C5     C7      1.524   .     S
C7     C8      1.382   .     S
C7     C12     1.378   .     S
C8     C9      1.376   .     S
C8     H13     0.965   .     S
C9     H14     0.956   .     S
C9     N10     1.349   .     S
N10    Mn65    2.291   1_556 S
N10    C11     1.334   .     S
C11    H15     0.965   .     S
C11    C12     1.374   .     S
C12    H16     0.962   .     S
S17    C18     1.657   .     S
C18    N19     1.132   .     S
N19    Mn66    2.223   .     S
O20    C21     1.235   .     S
O20    Mn65    2.294   1_566 S
C21    O22     1.245   .     S
C21    C23     1.524   .     S
C23    C24     1.382   .     S
C23    C28     1.378   .     S
C24    C25     1.376   .     S
C24    H29     0.965   .     S
C25    H30     0.956   .     S
C25    N26     1.349   .     S
N26    Mn66    2.291   .     S
N26    C27     1.334   .     S
C27    H31     0.965   .     S
C27    C28     1.374   .     S
C28    H32     0.962   .     S
S33    C34     1.657   .     S
C34    N35     1.132   .     S
N35    Mn65    2.223   1_566 S
O36    C37     1.235   .     S
O36    Mn66    2.294   .     S
C37    O38     1.245   .     S
C37    C39     1.524   .     S
C39    C40     1.382   .     S
C39    C44     1.378   .     S
C40    C41     1.376   .     S
C40    H45     0.965   .     S
C41    H46     0.956   .     S
C41    N42     1.349   .     S
N42    Mn65    2.291   1_565 S
N42    C43     1.334   .     S
C43    H47     0.965   .     S
C43    C44     1.374   .     S
C44    H48     0.962   .     S
S49    C50     1.657   .     S
C50    N51     1.132   .     S
N51    Mn66    2.223   .     S
O52    C53     1.235   .     S
O52    Mn65    2.294   .     S
C53    O54     1.245   .     S
C53    C55     1.524   .     S
C55    C56     1.382   .     S
C55    C60     1.378   .     S
C56    C57     1.376   .     S
C56    H61     0.965   .     S
C57    H62     0.956   .     S
C57    N58     1.349   .     S
N58    Mn66    2.291   .     S
N58    C59     1.334   .     S
C59    H63     0.965   .     S
C59    C60     1.374   .     S
C60    H64     0.962   .     S
Mn65   N35     2.223   1_544 S
Mn65   N10     2.291   1_554 S
Mn65   N42     2.291   1_545 S
Mn65   O20     2.294   1_544 S
