data_XUJVAC_FSR
_audit_creation_date              2024-06-11
_audit_creation_method            'Materials Studio'
_symmetry_space_group_name_H-M    'P1'
_symmetry_Int_Tables_number       1
_symmetry_cell_setting            triclinic
loop_
_symmetry_equiv_pos_as_xyz
  x,y,z
_cell_length_a                    9.5764
_cell_length_b                    15.7243
_cell_length_c                    16.9465
_cell_angle_alpha                 77.8220
_cell_angle_beta                  75.3090
_cell_angle_gamma                 89.0680
loop_
_atom_site_label
_atom_site_type_symbol
_atom_site_fract_x
_atom_site_fract_y
_atom_site_fract_z
_atom_site_U_iso_or_equiv
_atom_site_adp_type
_atom_site_occupancy
La1    La    0.70711   0.66216   0.89797   0.00000  Uiso   1.00
La2    La    0.29257   0.55842   0.91201   0.00000  Uiso   1.00
P3     P     0.59100   0.42245   0.93178   0.00000  Uiso   1.00
P4     P     0.47040   0.40131   0.26102   0.00000  Uiso   1.00
P5     P     0.94280   0.59352   0.05742   0.00000  Uiso   1.00
O6     O     0.45960   0.44000   0.89960   0.00000  Uiso   1.00
O7     O     0.66400   0.50330   0.94200   0.00000  Uiso   1.00
O8     O     0.56420   0.35780   0.01500   0.00000  Uiso   1.00
O9     O     0.35230   0.45900   0.29440   0.00000  Uiso   1.00
O10    O     0.45780   0.37250   0.18320   0.00000  Uiso   1.00
O11    O     0.62200   0.43900   0.24360   0.00000  Uiso   1.00
O12    O     0.09910   0.61210   0.01170   0.00000  Uiso   1.00
O13    O     0.84170   0.59500   0.00160   0.00000  Uiso   1.00
O14    O     0.91110   0.51000   0.12360   0.00000  Uiso   1.00
N15    N     0.66900   0.37130   0.77910   0.00000  Uiso   1.00
H16    H     0.63340   0.42490   0.75960   0.00000  Uiso   1.00
N17    N     0.53010   0.30470   0.40620   0.00000  Uiso   1.00
H18    H     0.62350   0.32750   0.38060   0.00000  Uiso   1.00
N19    N     0.90830   0.76960   0.06540   0.00000  Uiso   1.00
H20    H     0.88050   0.77060   0.01640   0.00000  Uiso   1.00
C21    C     0.72380   0.37840   0.85360   0.00000  Uiso   1.00
H22    H     0.80780   0.41700   0.83380   0.00000  Uiso   1.00
H23    H     0.75190   0.32230   0.87850   0.00000  Uiso   1.00
C24    C     0.55080   0.30460   0.79970   0.00000  Uiso   1.00
H25    H     0.58750   0.24810   0.81500   0.00000  Uiso   1.00
H26    H     0.47570   0.31470   0.84600   0.00000  Uiso   1.00
C27    C     0.49070   0.30630   0.72640   0.00000  Uiso   1.00
H28    H     0.41020   0.26230   0.74180   0.00000  Uiso   1.00
H29    H     0.45210   0.36430   0.70970   0.00000  Uiso   1.00
C30    C     0.60880   0.28690   0.65250   0.00000  Uiso   1.00
H31    H     0.64150   0.22980   0.67060   0.00000  Uiso   1.00
C32    C     0.73720   0.35080   0.63310   0.00000  Uiso   1.00
H33    H     0.81380   0.33820   0.58870   0.00000  Uiso   1.00
H34    H     0.70460   0.40770   0.61410   0.00000  Uiso   1.00
C35    C     0.78980   0.35190   0.71000   0.00000  Uiso   1.00
H36    H     0.86500   0.39620   0.69620   0.00000  Uiso   1.00
H37    H     0.82930   0.29660   0.72720   0.00000  Uiso   1.00
C38    C     0.54390   0.28430   0.57920   0.00000  Uiso   1.00
H39    H     0.44790   0.25930   0.60350   0.00000  Uiso   1.00
C40    C     0.52910   0.37160   0.52560   0.00000  Uiso   1.00
H41    H     0.46970   0.40450   0.56200   0.00000  Uiso   1.00
H42    H     0.62060   0.40260   0.50150   0.00000  Uiso   1.00
C43    C     0.45380   0.36540   0.45880   0.00000  Uiso   1.00
H44    H     0.45620   0.42230   0.42380   0.00000  Uiso   1.00
H45    H     0.35430   0.34670   0.48290   0.00000  Uiso   1.00
C46    C     0.54060   0.21880   0.45850   0.00000  Uiso   1.00
H47    H     0.44670   0.19130   0.48420   0.00000  Uiso   1.00
H48    H     0.59450   0.18300   0.42300   0.00000  Uiso   1.00
C49    C     0.62000   0.22470   0.52280   0.00000  Uiso   1.00
H50    H     0.71910   0.24350   0.49750   0.00000  Uiso   1.00
H51    H     0.61840   0.16770   0.55740   0.00000  Uiso   1.00
C52    C     0.45660   0.29880   0.33820   0.00000  Uiso   1.00
H53    H     0.35650   0.28200   0.36300   0.00000  Uiso   1.00
H54    H     0.50020   0.25420   0.31020   0.00000  Uiso   1.00
C55    C     0.88420   0.67890   0.11680   0.00000  Uiso   1.00
H56    H     0.78350   0.66850   0.14470   0.00000  Uiso   1.00
H57    H     0.93640   0.67420   0.15890   0.00000  Uiso   1.00
C58    C     0.06360   0.79880   0.04230   0.00000  Uiso   1.00
H59    H     0.09170   0.80040   0.09240   0.00000  Uiso   1.00
H60    H     0.12280   0.75850   0.01470   0.00000  Uiso   1.00
C61    C     0.08470   0.88880   0.98730   0.00000  Uiso   1.00
H62    H     0.18470   0.90730   0.97270   0.00000  Uiso   1.00
H63    H     0.05810   0.88650   0.93690   0.00000  Uiso   1.00
C64    C     0.99190   0.95500   0.02840   0.00000  Uiso   1.00
H65    H     0.02350   0.95960   0.07930   0.00000  Uiso   1.00
C66    C     0.83600   0.92180   0.05610   0.00000  Uiso   1.00
H67    H     0.77830   0.96200   0.08470   0.00000  Uiso   1.00
H68    H     0.80240   0.91920   0.00790   0.00000  Uiso   1.00
C69    C     0.81660   0.82990   0.11120   0.00000  Uiso   1.00
H70    H     0.71700   0.81010   0.12850   0.00000  Uiso   1.00
H71    H     0.84910   0.83160   0.16000   0.00000  Uiso   1.00
C72    C     0.58550   0.81730   0.96120   0.00000  Uiso   1.00
C73    C     0.49660   0.88240   0.99650   0.00000  Uiso   1.00
H74    H     0.55370   0.92910   0.00240   0.00000  Uiso   1.00
H75    H     0.43400   0.85630   0.04980   0.00000  Uiso   1.00
H76    H     0.43950   0.90470   0.95810   0.00000  Uiso   1.00
O77    O     0.65350   0.76490   0.00400   0.00000  Uiso   1.00
O78    O     0.59370   0.81160   0.88640   0.00000  Uiso   1.00
O79    O     0.79360   0.75910   0.74950   0.00000  Uiso   1.00
H80    H     0.76000   0.80800   0.72960   0.00000  Uiso   1.00
H81    H     0.86300   0.75000   0.70830   0.00000  Uiso   1.00
O82    O     0.93340   0.76320   0.88420   0.00000  Uiso   1.00
H83    H     0.90730   0.80200   0.91400   0.00000  Uiso   1.00
H84    H     0.96200   0.79300   0.83310   0.00000  Uiso   1.00
O85    O     0.91340   0.59430   0.80750   0.00000  Uiso   1.00
H86    H     0.96930   0.56060   0.83010   0.00000  Uiso   1.00
H87    H     0.95980   0.60010   0.75670   0.00000  Uiso   1.00
O88    O     0.21480   0.70620   0.83280   0.00000  Uiso   1.00
H89    H     0.27300   0.75030   0.83300   0.00000  Uiso   1.00
H90    H     0.12800   0.72000   0.86000   0.00000  Uiso   1.00
La91   La    0.29289   0.33784   0.10203   0.00000  Uiso   1.00
La92   La    0.70743   0.44158   0.08799   0.00000  Uiso   1.00
P93    P     0.40900   0.57755   0.06822   0.00000  Uiso   1.00
P94    P     0.52960   0.59869   0.73898   0.00000  Uiso   1.00
P95    P     0.05720   0.40648   0.94258   0.00000  Uiso   1.00
O96    O     0.54040   0.56000   0.10040   0.00000  Uiso   1.00
O97    O     0.33600   0.49670   0.05800   0.00000  Uiso   1.00
O98    O     0.43580   0.64220   0.98500   0.00000  Uiso   1.00
O99    O     0.64770   0.54100   0.70560   0.00000  Uiso   1.00
O100   O     0.54220   0.62750   0.81680   0.00000  Uiso   1.00
O101   O     0.37800   0.56100   0.75640   0.00000  Uiso   1.00
O102   O     0.90090   0.38790   0.98830   0.00000  Uiso   1.00
O103   O     0.15830   0.40500   0.99840   0.00000  Uiso   1.00
O104   O     0.08890   0.49000   0.87640   0.00000  Uiso   1.00
N105   N     0.33100   0.62870   0.22090   0.00000  Uiso   1.00
H106   H     0.36660   0.57510   0.24040   0.00000  Uiso   1.00
N107   N     0.46990   0.69530   0.59380   0.00000  Uiso   1.00
H108   H     0.37650   0.67250   0.61940   0.00000  Uiso   1.00
N109   N     0.09170   0.23040   0.93460   0.00000  Uiso   1.00
H110   H     0.11950   0.22940   0.98360   0.00000  Uiso   1.00
C111   C     0.27620   0.62160   0.14640   0.00000  Uiso   1.00
H112   H     0.19220   0.58300   0.16620   0.00000  Uiso   1.00
H113   H     0.24810   0.67770   0.12150   0.00000  Uiso   1.00
C114   C     0.44920   0.69540   0.20030   0.00000  Uiso   1.00
H115   H     0.41250   0.75190   0.18500   0.00000  Uiso   1.00
H116   H     0.52430   0.68530   0.15400   0.00000  Uiso   1.00
C117   C     0.50930   0.69370   0.27360   0.00000  Uiso   1.00
H118   H     0.58980   0.73770   0.25820   0.00000  Uiso   1.00
H119   H     0.54790   0.63570   0.29030   0.00000  Uiso   1.00
C120   C     0.39120   0.71310   0.34750   0.00000  Uiso   1.00
H121   H     0.35850   0.77020   0.32940   0.00000  Uiso   1.00
C122   C     0.26280   0.64920   0.36690   0.00000  Uiso   1.00
H123   H     0.18620   0.66180   0.41130   0.00000  Uiso   1.00
H124   H     0.29540   0.59230   0.38590   0.00000  Uiso   1.00
C125   C     0.21020   0.64810   0.29000   0.00000  Uiso   1.00
H126   H     0.13500   0.60380   0.30380   0.00000  Uiso   1.00
H127   H     0.17070   0.70340   0.27280   0.00000  Uiso   1.00
C128   C     0.45610   0.71570   0.42080   0.00000  Uiso   1.00
H129   H     0.55210   0.74070   0.39650   0.00000  Uiso   1.00
C130   C     0.47090   0.62840   0.47440   0.00000  Uiso   1.00
H131   H     0.53030   0.59550   0.43800   0.00000  Uiso   1.00
H132   H     0.37940   0.59740   0.49850   0.00000  Uiso   1.00
C133   C     0.54620   0.63460   0.54120   0.00000  Uiso   1.00
H134   H     0.54380   0.57770   0.57620   0.00000  Uiso   1.00
H135   H     0.64570   0.65330   0.51710   0.00000  Uiso   1.00
C136   C     0.45940   0.78120   0.54150   0.00000  Uiso   1.00
H137   H     0.55330   0.80870   0.51580   0.00000  Uiso   1.00
H138   H     0.40550   0.81700   0.57700   0.00000  Uiso   1.00
C139   C     0.38000   0.77530   0.47720   0.00000  Uiso   1.00
H140   H     0.28090   0.75650   0.50250   0.00000  Uiso   1.00
H141   H     0.38160   0.83230   0.44260   0.00000  Uiso   1.00
C142   C     0.54340   0.70120   0.66180   0.00000  Uiso   1.00
H143   H     0.64350   0.71800   0.63700   0.00000  Uiso   1.00
H144   H     0.49980   0.74580   0.68980   0.00000  Uiso   1.00
C145   C     0.11580   0.32110   0.88320   0.00000  Uiso   1.00
H146   H     0.21650   0.33150   0.85530   0.00000  Uiso   1.00
H147   H     0.06360   0.32580   0.84110   0.00000  Uiso   1.00
C148   C     0.93640   0.20120   0.95770   0.00000  Uiso   1.00
H149   H     0.90830   0.19960   0.90760   0.00000  Uiso   1.00
H150   H     0.87720   0.24150   0.98530   0.00000  Uiso   1.00
C151   C     0.91530   0.11120   0.01270   0.00000  Uiso   1.00
H152   H     0.81530   0.09270   0.02730   0.00000  Uiso   1.00
H153   H     0.94190   0.11350   0.06310   0.00000  Uiso   1.00
C154   C     0.00810   0.04500   0.97160   0.00000  Uiso   1.00
H155   H     0.97650   0.04040   0.92070   0.00000  Uiso   1.00
C156   C     0.16400   0.07820   0.94390   0.00000  Uiso   1.00
H157   H     0.22170   0.03800   0.91530   0.00000  Uiso   1.00
H158   H     0.19760   0.08080   0.99210   0.00000  Uiso   1.00
C159   C     0.18340   0.17010   0.88880   0.00000  Uiso   1.00
H160   H     0.28300   0.18990   0.87150   0.00000  Uiso   1.00
H161   H     0.15090   0.16840   0.84000   0.00000  Uiso   1.00
C162   C     0.41450   0.18270   0.03880   0.00000  Uiso   1.00
C163   C     0.50340   0.11760   0.00350   0.00000  Uiso   1.00
H164   H     0.44630   0.07090   0.99760   0.00000  Uiso   1.00
H165   H     0.56600   0.14370   0.95020   0.00000  Uiso   1.00
H166   H     0.56050   0.09530   0.04190   0.00000  Uiso   1.00
O167   O     0.34650   0.23510   0.99600   0.00000  Uiso   1.00
O168   O     0.40630   0.18840   0.11360   0.00000  Uiso   1.00
O169   O     0.20640   0.24090   0.25050   0.00000  Uiso   1.00
H170   H     0.24000   0.19200   0.27040   0.00000  Uiso   1.00
H171   H     0.13700   0.25000   0.29170   0.00000  Uiso   1.00
O172   O     0.06660   0.23680   0.11580   0.00000  Uiso   1.00
H173   H     0.09270   0.19800   0.08600   0.00000  Uiso   1.00
H174   H     0.03800   0.20700   0.16690   0.00000  Uiso   1.00
O175   O     0.08660   0.40570   0.19250   0.00000  Uiso   1.00
H176   H     0.03070   0.43940   0.16990   0.00000  Uiso   1.00
H177   H     0.04020   0.39990   0.24330   0.00000  Uiso   1.00
O178   O     0.78520   0.29380   0.16720   0.00000  Uiso   1.00
H179   H     0.72700   0.24970   0.16700   0.00000  Uiso   1.00
H180   H     0.87200   0.28000   0.14000   0.00000  Uiso   1.00
loop_
_geom_bond_atom_site_label_1
_geom_bond_atom_site_label_2
_geom_bond_distance
_geom_bond_site_symmetry_2
_ccdc_geom_bond_type
La1    O7      2.461   .     S
La1    O77     2.614   1_556 S
La1    O78     2.563   .     S
La1    O79     2.590   .     S
La1    O82     2.641   .     S
La1    O85     2.545   .     S
La1    O98     2.629   .     S
La1    O100    2.476   .     S
La1    O13     2.486   1_556 S
La2    O6      2.443   .     S
La2    O12     2.442   1_556 S
La2    O88     2.625   .     S
La2    O97     2.594   1_556 S
La2    O101    2.547   .     S
La2    O103    2.697   .     S
La2    O104    2.503   .     S
La2    O98     2.599   .     S
La2    O100    2.624   .     S
P3     O6      1.493   .     S
P3     O7      1.523   .     S
P3     O8      1.519   1_556 S
P3     C21     1.832   .     S
P4     O9      1.510   .     S
P4     O10     1.514   .     S
P4     O11     1.511   .     S
P4     C52     1.832   .     S
P5     O12     1.502   1_655 S
P5     O13     1.512   .     S
P5     O14     1.514   .     S
P5     C55     1.841   .     S
O7     La92    2.594   1_556 S
O8     P3      1.519   1_554 S
O8     La91    2.629   .     S
O8     La92    2.599   .     S
O10    La91    2.476   .     S
O10    La92    2.624   .     S
O11    La92    2.547   .     S
O12    P5      1.502   1_455 S
O12    La2     2.442   1_554 S
O13    La92    2.697   .     S
O13    La1     2.486   1_554 S
O14    La92    2.503   .     S
N15    H16     0.931   .     S
N15    C24     1.479   .     S
N15    C35     1.502   .     S
N15    C21     1.510   .     S
N17    H18     0.930   .     S
N17    C43     1.498   .     S
N17    C46     1.468   .     S
N17    C52     1.513   .     S
N19    H20     0.931   .     S
N19    C58     1.492   1_655 S
N19    C69     1.487   .     S
N19    C55     1.494   .     S
C21    H22     0.960   .     S
C21    H23     0.960   .     S
C24    H25     0.959   .     S
C24    H26     0.960   .     S
C24    C27     1.491   .     S
C27    H28     0.990   .     S
C27    H29     0.991   .     S
C27    C30     1.540   .     S
C30    H31     0.960   .     S
C30    C32     1.525   .     S
C30    C38     1.531   .     S
C32    H33     0.960   .     S
C32    H34     0.960   .     S
C32    C35     1.515   .     S
C35    H36     0.960   .     S
C35    H37     0.960   .     S
C38    H39     0.960   .     S
C38    C40     1.504   .     S
C38    C49     1.525   .     S
C40    H41     0.959   .     S
C40    H42     0.959   .     S
C40    C43     1.508   .     S
C43    H44     0.961   .     S
C43    H45     0.960   .     S
C46    H47     0.959   .     S
C46    H48     0.960   .     S
C46    C49     1.496   .     S
C49    H50     0.960   .     S
C49    H51     0.960   .     S
C52    H53     0.960   .     S
C52    H54     0.960   .     S
C55    H56     0.960   .     S
C55    H57     0.960   .     S
C58    N19     1.492   1_455 S
C58    H59     0.959   .     S
C58    H60     0.959   .     S
C58    C61     1.507   1_554 S
C61    C58     1.507   1_556 S
C61    H62     0.960   .     S
C61    H63     0.959   .     S
C61    C64     1.523   1_456 S
C64    C61     1.523   1_654 S
C64    H65     1.000   1_655 S
C64    C66     1.513   .     S
C64    C154    1.520   1_664 S
H65    C64     1.000   1_455 S
C66    H67     0.960   .     S
C66    H68     0.959   .     S
C66    C69     1.532   .     S
C69    H70     0.960   .     S
C69    H71     0.960   .     S
C72    C73     1.450   .     S
C72    O77     1.265   1_556 S
C72    O78     1.272   .     S
C73    H74     0.959   1_556 S
C73    H75     0.959   1_556 S
C73    H76     0.961   .     S
H74    C73     0.959   1_554 S
H75    C73     0.959   1_554 S
O77    La1     2.614   1_554 S
O77    C72     1.265   1_554 S
O79    H80     0.864   .     S
O79    H81     0.868   .     S
O82    H83     0.866   .     S
O82    H84     0.870   .     S
O85    H86     0.850   .     S
O85    H87     0.849   .     S
O88    H89     0.898   .     S
O88    H90     0.890   .     S
La91   O97     2.461   .     S
La91   O167    2.614   1_554 S
La91   O168    2.563   .     S
La91   O169    2.590   .     S
La91   O172    2.641   .     S
La91   O175    2.545   .     S
La91   O103    2.486   1_554 S
La92   O96     2.443   .     S
La92   O102    2.442   1_554 S
La92   O178    2.625   .     S
La92   O7      2.594   1_554 S
P93    O96     1.493   .     S
P93    O97     1.523   .     S
P93    O98     1.519   1_554 S
P93    C111    1.832   .     S
P94    O99     1.510   .     S
P94    O100    1.514   .     S
P94    O101    1.511   .     S
P94    C142    1.832   .     S
P95    O102    1.502   1_455 S
P95    O103    1.512   .     S
P95    O104    1.514   .     S
P95    C145    1.841   .     S
O97    La2     2.594   1_554 S
O98    P93     1.519   1_556 S
O102   P95     1.502   1_655 S
O102   La92    2.442   1_556 S
O103   La91    2.486   1_556 S
N105   H106    0.931   .     S
N105   C114    1.479   .     S
N105   C125    1.502   .     S
N105   C111    1.510   .     S
N107   H108    0.930   .     S
N107   C133    1.498   .     S
N107   C136    1.468   .     S
N107   C142    1.513   .     S
N109   H110    0.931   .     S
N109   C148    1.492   1_455 S
N109   C159    1.487   .     S
N109   C145    1.494   .     S
C111   H112    0.960   .     S
C111   H113    0.960   .     S
C114   H115    0.959   .     S
C114   H116    0.960   .     S
C114   C117    1.491   .     S
C117   H118    0.990   .     S
C117   H119    0.991   .     S
C117   C120    1.540   .     S
C120   H121    0.960   .     S
C120   C122    1.525   .     S
C120   C128    1.531   .     S
C122   H123    0.960   .     S
C122   H124    0.960   .     S
C122   C125    1.515   .     S
C125   H126    0.960   .     S
C125   H127    0.960   .     S
C128   H129    0.960   .     S
C128   C130    1.504   .     S
C128   C139    1.525   .     S
C130   H131    0.959   .     S
C130   H132    0.959   .     S
C130   C133    1.508   .     S
C133   H134    0.961   .     S
C133   H135    0.960   .     S
C136   H137    0.959   .     S
C136   H138    0.960   .     S
C136   C139    1.496   .     S
C139   H140    0.960   .     S
C139   H141    0.960   .     S
C142   H143    0.960   .     S
C142   H144    0.960   .     S
C145   H146    0.960   .     S
C145   H147    0.960   .     S
C148   N109    1.492   1_655 S
C148   H149    0.959   .     S
C148   H150    0.959   .     S
C148   C151    1.507   1_556 S
C151   C148    1.507   1_554 S
C151   H152    0.960   .     S
C151   H153    0.959   .     S
C151   C154    1.523   1_654 S
C154   C151    1.523   1_456 S
C154   H155    1.000   1_455 S
C154   C156    1.513   .     S
C154   C64     1.520   1_446 S
H155   C154    1.000   1_655 S
C156   H157    0.960   .     S
C156   H158    0.959   .     S
C156   C159    1.532   .     S
C159   H160    0.960   .     S
C159   H161    0.960   .     S
C162   C163    1.450   .     S
C162   O167    1.265   1_554 S
C162   O168    1.272   .     S
C163   H164    0.959   1_554 S
C163   H165    0.959   1_554 S
C163   H166    0.961   .     S
H164   C163    0.959   1_556 S
H165   C163    0.959   1_556 S
O167   La91    2.614   1_556 S
O167   C162    1.265   1_556 S
O169   H170    0.864   .     S
O169   H171    0.868   .     S
O172   H173    0.866   .     S
O172   H174    0.870   .     S
O175   H176    0.850   .     S
O175   H177    0.849   .     S
O178   H179    0.898   .     S
O178   H180    0.890   .     S
