data_XUJVEG_FSR
_audit_creation_date              2024-06-11
_audit_creation_method            'Materials Studio'
_symmetry_space_group_name_H-M    'P1'
_symmetry_Int_Tables_number       1
_symmetry_cell_setting            triclinic
loop_
_symmetry_equiv_pos_as_xyz
  x,y,z
_cell_length_a                    9.6372
_cell_length_b                    15.7944
_cell_length_c                    17.0212
_cell_angle_alpha                 77.5540
_cell_angle_beta                  75.5520
_cell_angle_gamma                 88.7790
loop_
_atom_site_label
_atom_site_type_symbol
_atom_site_fract_x
_atom_site_fract_y
_atom_site_fract_z
_atom_site_U_iso_or_equiv
_atom_site_adp_type
_atom_site_occupancy
La1    La    0.29555   0.33710   0.10079   0.00000  Uiso   1.00
La2    La    0.29274   0.55859   0.91157   0.00000  Uiso   1.00
P3     P     0.46925   0.40011   0.26101   0.00000  Uiso   1.00
P4     P     0.59146   0.42270   0.93192   0.00000  Uiso   1.00
P5     P     0.94302   0.59333   0.05706   0.00000  Uiso   1.00
O6     O     0.45630   0.36902   0.18365   0.00000  Uiso   1.00
O7     O     0.35160   0.45780   0.29291   0.00000  Uiso   1.00
O8     O     0.62020   0.43795   0.24371   0.00000  Uiso   1.00
O9     O     0.56480   0.35752   0.01549   0.00000  Uiso   1.00
O10    O     0.66320   0.50341   0.94232   0.00000  Uiso   1.00
O11    O     0.45940   0.44033   0.89955   0.00000  Uiso   1.00
O12    O     0.09810   0.61027   0.01116   0.00000  Uiso   1.00
O13    O     0.91010   0.50934   0.12348   0.00000  Uiso   1.00
O14    O     0.84020   0.59589   0.00154   0.00000  Uiso   1.00
O15    O     0.07270   0.23150   0.12720   0.00000  Uiso   1.00
O16    O     0.18320   0.22830   0.24070   0.00000  Uiso   1.00
O17    O     0.34580   0.23406   0.99638   0.00000  Uiso   1.00
O18    O     0.41420   0.18720   0.11250   0.00000  Uiso   1.00
O19    O     0.09090   0.40610   0.19155   0.00000  Uiso   1.00
H20    H     0.03455   0.36612   0.22911   0.00000  Uiso   1.00
H21    H     0.03376   0.43244   0.16196   0.00000  Uiso   1.00
O22    O     0.20850   0.70430   0.83481   0.00000  Uiso   1.00
H23    H     0.26780   0.74749   0.83076   0.00000  Uiso   1.00
H24    H     0.12706   0.71901   0.86462   0.00000  Uiso   1.00
N25    N     0.53260   0.30650   0.40600   0.00000  Uiso   1.00
H26    H     0.63141   0.33158   0.37777   0.00000  Uiso   1.00
N27    N     0.67110   0.37210   0.77940   0.00000  Uiso   1.00
H28    H     0.63194   0.42951   0.75900   0.00000  Uiso   1.00
N29    N     0.90600   0.76891   0.06400   0.00000  Uiso   1.00
H30    H     0.86786   0.76960   0.01437   0.00000  Uiso   1.00
C31    C     0.45920   0.29890   0.33950   0.00000  Uiso   1.00
H32    H     0.35716   0.28161   0.36572   0.00000  Uiso   1.00
H33    H     0.50368   0.25247   0.31167   0.00000  Uiso   1.00
C34    C     0.45700   0.36680   0.45850   0.00000  Uiso   1.00
H35    H     0.35726   0.34492   0.48534   0.00000  Uiso   1.00
H36    H     0.45352   0.42487   0.42276   0.00000  Uiso   1.00
C37    C     0.53320   0.37460   0.52490   0.00000  Uiso   1.00
H38    H     0.47912   0.41270   0.56011   0.00000  Uiso   1.00
H39    H     0.63012   0.40133   0.49810   0.00000  Uiso   1.00
C40    C     0.54580   0.28550   0.57900   0.00000  Uiso   1.00
H41    H     0.44599   0.26058   0.60352   0.00000  Uiso   1.00
C42    C     0.62390   0.22630   0.52390   0.00000  Uiso   1.00
H43    H     0.72284   0.24964   0.49680   0.00000  Uiso   1.00
H44    H     0.62974   0.16796   0.55849   0.00000  Uiso   1.00
C45    C     0.54730   0.21920   0.45830   0.00000  Uiso   1.00
H46    H     0.60151   0.18164   0.42246   0.00000  Uiso   1.00
H47    H     0.45095   0.19173   0.48540   0.00000  Uiso   1.00
C48    C     0.61090   0.28820   0.65280   0.00000  Uiso   1.00
H49    H     0.64653   0.22919   0.67134   0.00000  Uiso   1.00
C50    C     0.49390   0.30710   0.72530   0.00000  Uiso   1.00
H51    H     0.45587   0.36513   0.70863   0.00000  Uiso   1.00
H52    H     0.41405   0.26362   0.73974   0.00000  Uiso   1.00
C53    C     0.55300   0.30430   0.80060   0.00000  Uiso   1.00
H54    H     0.47555   0.31511   0.84756   0.00000  Uiso   1.00
H55    H     0.59041   0.24620   0.81777   0.00000  Uiso   1.00
C56    C     0.79150   0.35380   0.71050   0.00000  Uiso   1.00
H57    H     0.83123   0.29669   0.72885   0.00000  Uiso   1.00
H58    H     0.86913   0.39865   0.69659   0.00000  Uiso   1.00
C59    C     0.73640   0.35350   0.63380   0.00000  Uiso   1.00
H60    H     0.81547   0.33899   0.58958   0.00000  Uiso   1.00
H61    H     0.70516   0.41234   0.61275   0.00000  Uiso   1.00
C62    C     0.72280   0.37750   0.85410   0.00000  Uiso   1.00
H63    H     0.81200   0.41414   0.83584   0.00000  Uiso   1.00
H64    H     0.74646   0.31869   0.88049   0.00000  Uiso   1.00
C65    C     0.88800   0.67830   0.11570   0.00000  Uiso   1.00
H66    H     0.78588   0.66736   0.14599   0.00000  Uiso   1.00
H67    H     0.94447   0.67386   0.15757   0.00000  Uiso   1.00
C68    C     0.82160   0.83060   0.11190   0.00000  Uiso   1.00
H69    H     0.85601   0.82978   0.16220   0.00000  Uiso   1.00
H70    H     0.71922   0.81161   0.12995   0.00000  Uiso   1.00
C71    C     0.83670   0.92190   0.05950   0.00000  Uiso   1.00
H72    H     0.78220   0.96126   0.09319   0.00000  Uiso   1.00
H73    H     0.79479   0.92345   0.01176   0.00000  Uiso   1.00
C74    C     0.99270   0.95420   0.02740   0.00000  Uiso   1.00
H75    H     0.03174   0.95574   0.07627   0.00000  Uiso   1.00
C76    C     0.07760   0.88980   0.98070   0.00000  Uiso   1.00
H77    H     0.04389   0.89002   0.93026   0.00000  Uiso   1.00
H78    H     0.18020   0.90825   0.96278   0.00000  Uiso   1.00
C79    C     0.06170   0.79860   0.03370   0.00000  Uiso   1.00
H80    H     0.11581   0.75856   0.00064   0.00000  Uiso   1.00
H81    H     0.10236   0.79703   0.08189   0.00000  Uiso   1.00
C82    C     0.08340   0.19410   0.20570   0.00000  Uiso   1.00
C83    C     0.99570   0.11000   0.24890   0.00000  Uiso   1.00
H84    H     0.04450   0.06151   0.22745   0.00000  Uiso   1.00
H85    H     0.90041   0.11484   0.23794   0.00000  Uiso   1.00
H86    H     0.98602   0.09976   0.30889   0.00000  Uiso   1.00
C87    C     0.41770   0.18270   0.03880   0.00000  Uiso   1.00
C88    C     0.51080   0.11890   0.99890   0.00000  Uiso   1.00
H89    H     0.47010   0.10333   0.95643   0.00000  Uiso   1.00
H90    H     0.51611   0.06673   0.04118   0.00000  Uiso   1.00
H91    H     0.60729   0.14484   0.97302   0.00000  Uiso   1.00
La92   La    0.70445   0.66290   0.89921   0.00000  Uiso   1.00
La93   La    0.70726   0.44141   0.08843   0.00000  Uiso   1.00
P94    P     0.53075   0.59989   0.73899   0.00000  Uiso   1.00
P95    P     0.40854   0.57730   0.06808   0.00000  Uiso   1.00
P96    P     0.05698   0.40667   0.94294   0.00000  Uiso   1.00
O97    O     0.54370   0.63098   0.81635   0.00000  Uiso   1.00
O98    O     0.64840   0.54220   0.70709   0.00000  Uiso   1.00
O99    O     0.37980   0.56205   0.75629   0.00000  Uiso   1.00
O100   O     0.43520   0.64248   0.98451   0.00000  Uiso   1.00
O101   O     0.33680   0.49659   0.05768   0.00000  Uiso   1.00
O102   O     0.54060   0.55967   0.10045   0.00000  Uiso   1.00
O103   O     0.90190   0.38973   0.98884   0.00000  Uiso   1.00
O104   O     0.08990   0.49066   0.87652   0.00000  Uiso   1.00
O105   O     0.15980   0.40411   0.99846   0.00000  Uiso   1.00
O106   O     0.92730   0.76850   0.87280   0.00000  Uiso   1.00
O107   O     0.81680   0.77170   0.75930   0.00000  Uiso   1.00
O108   O     0.65420   0.76594   0.00362   0.00000  Uiso   1.00
O109   O     0.58580   0.81280   0.88750   0.00000  Uiso   1.00
O110   O     0.90910   0.59390   0.80845   0.00000  Uiso   1.00
H111   H     0.96546   0.63388   0.77089   0.00000  Uiso   1.00
H112   H     0.96624   0.56756   0.83804   0.00000  Uiso   1.00
O113   O     0.79150   0.29570   0.16519   0.00000  Uiso   1.00
H114   H     0.73221   0.25251   0.16924   0.00000  Uiso   1.00
H115   H     0.87295   0.28099   0.13538   0.00000  Uiso   1.00
N116   N     0.46740   0.69350   0.59400   0.00000  Uiso   1.00
H117   H     0.36859   0.66842   0.62223   0.00000  Uiso   1.00
N118   N     0.32890   0.62790   0.22060   0.00000  Uiso   1.00
H119   H     0.36806   0.57049   0.24100   0.00000  Uiso   1.00
N120   N     0.09400   0.23109   0.93600   0.00000  Uiso   1.00
H121   H     0.13214   0.23040   0.98563   0.00000  Uiso   1.00
C122   C     0.54080   0.70110   0.66050   0.00000  Uiso   1.00
H123   H     0.64284   0.71839   0.63428   0.00000  Uiso   1.00
H124   H     0.49632   0.74753   0.68833   0.00000  Uiso   1.00
C125   C     0.54300   0.63320   0.54150   0.00000  Uiso   1.00
H126   H     0.64274   0.65508   0.51466   0.00000  Uiso   1.00
H127   H     0.54648   0.57513   0.57724   0.00000  Uiso   1.00
C128   C     0.46680   0.62540   0.47510   0.00000  Uiso   1.00
H129   H     0.52088   0.58730   0.43989   0.00000  Uiso   1.00
H130   H     0.36988   0.59867   0.50190   0.00000  Uiso   1.00
C131   C     0.45420   0.71450   0.42100   0.00000  Uiso   1.00
H132   H     0.55401   0.73942   0.39648   0.00000  Uiso   1.00
C133   C     0.37610   0.77370   0.47610   0.00000  Uiso   1.00
H134   H     0.27716   0.75036   0.50320   0.00000  Uiso   1.00
H135   H     0.37026   0.83204   0.44151   0.00000  Uiso   1.00
C136   C     0.45270   0.78080   0.54170   0.00000  Uiso   1.00
H137   H     0.39849   0.81836   0.57754   0.00000  Uiso   1.00
H138   H     0.54905   0.80827   0.51460   0.00000  Uiso   1.00
C139   C     0.38910   0.71180   0.34720   0.00000  Uiso   1.00
H140   H     0.35347   0.77081   0.32866   0.00000  Uiso   1.00
C141   C     0.50610   0.69290   0.27470   0.00000  Uiso   1.00
H142   H     0.54413   0.63487   0.29137   0.00000  Uiso   1.00
H143   H     0.58595   0.73638   0.26026   0.00000  Uiso   1.00
C144   C     0.44700   0.69570   0.19940   0.00000  Uiso   1.00
H145   H     0.52445   0.68489   0.15244   0.00000  Uiso   1.00
H146   H     0.40959   0.75380   0.18223   0.00000  Uiso   1.00
C147   C     0.20850   0.64620   0.28950   0.00000  Uiso   1.00
H148   H     0.16877   0.70331   0.27115   0.00000  Uiso   1.00
H149   H     0.13087   0.60135   0.30341   0.00000  Uiso   1.00
C150   C     0.26360   0.64650   0.36620   0.00000  Uiso   1.00
H151   H     0.18453   0.66101   0.41042   0.00000  Uiso   1.00
H152   H     0.29484   0.58766   0.38725   0.00000  Uiso   1.00
C153   C     0.27720   0.62250   0.14590   0.00000  Uiso   1.00
H154   H     0.18800   0.58586   0.16416   0.00000  Uiso   1.00
H155   H     0.25354   0.68131   0.11951   0.00000  Uiso   1.00
C156   C     0.11200   0.32170   0.88430   0.00000  Uiso   1.00
H157   H     0.21412   0.33264   0.85401   0.00000  Uiso   1.00
H158   H     0.05553   0.32614   0.84243   0.00000  Uiso   1.00
C159   C     0.17840   0.16940   0.88810   0.00000  Uiso   1.00
H160   H     0.14399   0.17022   0.83780   0.00000  Uiso   1.00
H161   H     0.28078   0.18839   0.87005   0.00000  Uiso   1.00
C162   C     0.16330   0.07810   0.94050   0.00000  Uiso   1.00
H163   H     0.21780   0.03874   0.90681   0.00000  Uiso   1.00
H164   H     0.20521   0.07655   0.98824   0.00000  Uiso   1.00
C165   C     0.00730   0.04580   0.97260   0.00000  Uiso   1.00
H166   H     0.96826   0.04426   0.92373   0.00000  Uiso   1.00
C167   C     0.92240   0.11020   0.01930   0.00000  Uiso   1.00
H168   H     0.95611   0.10998   0.06974   0.00000  Uiso   1.00
H169   H     0.81980   0.09175   0.03722   0.00000  Uiso   1.00
C170   C     0.93830   0.20140   0.96630   0.00000  Uiso   1.00
H171   H     0.88419   0.24144   0.99936   0.00000  Uiso   1.00
H172   H     0.89764   0.20297   0.91811   0.00000  Uiso   1.00
C173   C     0.91660   0.80590   0.79430   0.00000  Uiso   1.00
C174   C     0.00430   0.89000   0.75110   0.00000  Uiso   1.00
H175   H     0.95550   0.93850   0.77255   0.00000  Uiso   1.00
H176   H     0.09959   0.88516   0.76207   0.00000  Uiso   1.00
H177   H     0.01398   0.90024   0.69111   0.00000  Uiso   1.00
C178   C     0.58230   0.81730   0.96120   0.00000  Uiso   1.00
C179   C     0.48920   0.88110   0.00110   0.00000  Uiso   1.00
H180   H     0.52990   0.89667   0.04357   0.00000  Uiso   1.00
H181   H     0.48389   0.93327   0.95882   0.00000  Uiso   1.00
H182   H     0.39271   0.85516   0.02698   0.00000  Uiso   1.00
loop_
_geom_bond_atom_site_label_1
_geom_bond_atom_site_label_2
_geom_bond_distance
_geom_bond_site_symmetry_2
_ccdc_geom_bond_type
La1    O6      2.464   .     S
La1    O15     2.635   .     S
La1    O16     2.613   .     S
La1    O17     2.612   1_554 S
La1    O18     2.598   .     S
La1    O19     2.565   .     S
La1    O9      2.627   .     S
La1    O101    2.478   .     S
La1    O105    2.480   1_554 S
La2    O11     2.446   .     S
La2    O12     2.450   1_556 S
La2    O22     2.611   .     S
La2    O97     2.673   .     S
La2    O99     2.555   .     S
La2    O100    2.611   .     S
La2    O101    2.605   1_556 S
La2    O104    2.505   .     S
La2    O105    2.723   .     S
P3     O6      1.534   .     S
P3     O7      1.508   .     S
P3     O8      1.519   .     S
P3     C31     1.836   .     S
P4     O9      1.532   1_556 S
P4     O10     1.527   .     S
P4     O11     1.506   .     S
P4     C62     1.844   .     S
P5     O12     1.503   1_655 S
P5     O13     1.527   .     S
P5     O14     1.525   .     S
P5     C65     1.833   .     S
O6     La93    2.673   .     S
O8     La93    2.555   .     S
O9     P4      1.532   1_554 S
O9     La93    2.611   .     S
O10    La92    2.478   .     S
O10    La93    2.605   1_556 S
O12    P5      1.503   1_455 S
O12    La2     2.450   1_554 S
O13    La93    2.505   .     S
O14    La92    2.480   1_554 S
O14    La93    2.723   .     S
O15    C82     1.368   .     S
O16    C82     1.421   .     S
O17    La1     2.612   1_556 S
O17    C87     1.278   1_556 S
O18    C87     1.264   .     S
O19    H20     0.877   .     S
O19    H21     0.877   .     S
O22    H23     0.879   .     S
O22    H24     0.879   .     S
N25    H26     1.000   .     S
N25    C34     1.500   .     S
N25    C45     1.496   .     S
N25    C31     1.503   .     S
N27    H28     1.000   .     S
N27    C53     1.501   .     S
N27    C56     1.503   .     S
N27    C62     1.496   .     S
N29    H30     1.000   .     S
N29    C68     1.501   .     S
N29    C79     1.509   1_655 S
N29    C65     1.498   .     S
C31    H32     0.990   .     S
C31    H33     0.990   .     S
C34    H35     0.989   .     S
C34    H36     0.990   .     S
C34    C37     1.520   .     S
C37    H38     0.990   .     S
C37    H39     0.990   .     S
C37    C40     1.527   .     S
C40    H41     1.000   .     S
C40    C42     1.522   .     S
C40    C48     1.546   .     S
C42    H43     0.990   .     S
C42    H44     0.990   .     S
C42    C45     1.508   .     S
C45    H46     0.990   .     S
C45    H47     0.990   .     S
C48    H49     1.000   .     S
C48    C50     1.528   .     S
C48    C59     1.531   .     S
C50    H51     0.990   .     S
C50    H52     0.990   .     S
C50    C53     1.519   .     S
C53    H54     0.990   .     S
C53    H55     0.990   .     S
C56    H57     0.991   .     S
C56    H58     0.990   .     S
C56    C59     1.528   .     S
C59    H60     0.990   .     S
C59    H61     0.990   .     S
C62    H63     0.990   .     S
C62    H64     0.989   .     S
C65    H66     0.990   .     S
C65    H67     0.990   .     S
C68    H69     0.990   .     S
C68    H70     0.990   .     S
C68    C71     1.512   .     S
C71    H72     0.990   .     S
C71    H73     0.989   .     S
C71    C74     1.524   .     S
C74    H75     1.000   1_655 S
C74    C76     1.525   1_654 S
C74    C165    1.531   1_664 S
H75    C74     1.000   1_455 S
C76    C74     1.525   1_456 S
C76    H77     0.990   .     S
C76    H78     0.990   .     S
C76    C79     1.514   1_556 S
C79    N29     1.509   1_455 S
C79    H80     0.991   .     S
C79    H81     0.989   .     S
C79    C76     1.514   1_554 S
C82    C83     1.528   1_455 S
C83    C82     1.528   1_655 S
C83    H84     0.980   1_655 S
C83    H85     0.980   .     S
C83    H86     0.980   .     S
H84    C83     0.980   1_455 S
C87    O17     1.278   1_554 S
C87    C88     1.495   1_554 S
C88    C87     1.495   1_556 S
C88    H89     0.979   .     S
C88    H90     0.980   1_556 S
C88    H91     0.980   .     S
H90    C88     0.980   1_554 S
La92   O97     2.464   .     S
La92   O106    2.635   .     S
La92   O107    2.613   .     S
La92   O108    2.612   1_556 S
La92   O109    2.598   .     S
La92   O110    2.565   .     S
La92   O100    2.627   .     S
La92   O14     2.480   1_556 S
La93   O102    2.446   .     S
La93   O103    2.450   1_554 S
La93   O113    2.611   .     S
La93   O10     2.605   1_554 S
P94    O97     1.534   .     S
P94    O98     1.508   .     S
P94    O99     1.519   .     S
P94    C122    1.836   .     S
P95    O100    1.532   1_554 S
P95    O101    1.527   .     S
P95    O102    1.506   .     S
P95    C153    1.844   .     S
P96    O103    1.503   1_455 S
P96    O104    1.527   .     S
P96    O105    1.525   .     S
P96    C156    1.833   .     S
O100   P95     1.532   1_556 S
O101   La2     2.605   1_554 S
O103   P96     1.503   1_655 S
O103   La93    2.450   1_556 S
O105   La1     2.480   1_556 S
O106   C173    1.368   .     S
O107   C173    1.421   .     S
O108   La92    2.612   1_554 S
O108   C178    1.278   1_554 S
O109   C178    1.264   .     S
O110   H111    0.877   .     S
O110   H112    0.877   .     S
O113   H114    0.879   .     S
O113   H115    0.879   .     S
N116   H117    1.000   .     S
N116   C125    1.500   .     S
N116   C136    1.496   .     S
N116   C122    1.503   .     S
N118   H119    1.000   .     S
N118   C144    1.501   .     S
N118   C147    1.503   .     S
N118   C153    1.496   .     S
N120   H121    1.000   .     S
N120   C159    1.501   .     S
N120   C170    1.509   1_455 S
N120   C156    1.498   .     S
C122   H123    0.990   .     S
C122   H124    0.990   .     S
C125   H126    0.989   .     S
C125   H127    0.990   .     S
C125   C128    1.520   .     S
C128   H129    0.990   .     S
C128   H130    0.990   .     S
C128   C131    1.527   .     S
C131   H132    1.000   .     S
C131   C133    1.522   .     S
C131   C139    1.546   .     S
C133   H134    0.990   .     S
C133   H135    0.990   .     S
C133   C136    1.508   .     S
C136   H137    0.990   .     S
C136   H138    0.990   .     S
C139   H140    1.000   .     S
C139   C141    1.528   .     S
C139   C150    1.531   .     S
C141   H142    0.990   .     S
C141   H143    0.990   .     S
C141   C144    1.519   .     S
C144   H145    0.990   .     S
C144   H146    0.990   .     S
C147   H148    0.991   .     S
C147   H149    0.990   .     S
C147   C150    1.528   .     S
C150   H151    0.990   .     S
C150   H152    0.990   .     S
C153   H154    0.990   .     S
C153   H155    0.989   .     S
C156   H157    0.990   .     S
C156   H158    0.990   .     S
C159   H160    0.990   .     S
C159   H161    0.990   .     S
C159   C162    1.512   .     S
C162   H163    0.990   .     S
C162   H164    0.989   .     S
C162   C165    1.524   .     S
C165   H166    1.000   1_455 S
C165   C167    1.525   1_456 S
C165   C74     1.531   1_446 S
H166   C165    1.000   1_655 S
C167   C165    1.525   1_654 S
C167   H168    0.990   .     S
C167   H169    0.990   .     S
C167   C170    1.514   1_554 S
C170   N120    1.509   1_655 S
C170   H171    0.991   .     S
C170   H172    0.989   .     S
C170   C167    1.514   1_556 S
C173   C174    1.528   1_655 S
C174   C173    1.528   1_455 S
C174   H175    0.980   1_455 S
C174   H176    0.980   .     S
C174   H177    0.980   .     S
H175   C174    0.980   1_655 S
C178   O108    1.278   1_556 S
C178   C179    1.495   1_556 S
C179   C178    1.495   1_554 S
C179   H180    0.979   .     S
C179   H181    0.980   1_554 S
C179   H182    0.980   .     S
H181   C179    0.980   1_556 S
