data_XUMPED_FSR
_audit_creation_date              2024-06-11
_audit_creation_method            'Materials Studio'
_symmetry_space_group_name_H-M    'P1'
_symmetry_Int_Tables_number       1
_symmetry_cell_setting            triclinic
loop_
_symmetry_equiv_pos_as_xyz
  x,y,z
_cell_length_a                    13.9816
_cell_length_b                    9.9589
_cell_length_c                    22.2660
_cell_angle_alpha                 90.0000
_cell_angle_beta                  134.8980
_cell_angle_gamma                 90.0000
loop_
_atom_site_label
_atom_site_type_symbol
_atom_site_fract_x
_atom_site_fract_y
_atom_site_fract_z
_atom_site_U_iso_or_equiv
_atom_site_adp_type
_atom_site_occupancy
C1     C     0.58050   1.01690   0.38241   0.03239  Uani   1.00
C2     C     0.70410   0.94780   0.57542   0.03684  Uani   1.00
C3     C     0.53420   0.92750   0.41082   0.02638  Uani   1.00
C4     C     0.58850   0.89480   0.48962   0.02760  Uani   1.00
C5     C     0.41190   0.76680   0.39306   0.02627  Uani   1.00
C6     C     0.30750   0.66220   0.35574   0.02772  Uani   1.00
C7     C     0.33730   0.52490   0.36571   0.02947  Uani   1.00
C8     C     0.23630   0.43340   0.33542   0.04435  Uani   1.00
H9     H     0.25500   0.34190   0.34290   0.05300  Uiso   1.00
C10    C     0.10840   0.47710   0.29430   0.05677  Uani   1.00
H11    H     0.04210   0.41470   0.27470   0.06800  Uiso   1.00
C12    C     0.07850   0.61110   0.28210   0.05229  Uani   1.00
H13    H    -0.00840   0.63970   0.25280   0.06200  Uiso   1.00
C14    C     0.17880   0.70400   0.31376   0.04004  Uani   1.00
H15    H     0.15920   0.79520   0.30670   0.04800  Uiso   1.00
C16    C     0.46930   0.47120   0.39950   0.03198  Uani   1.00
C17    C     0.27850   1.19890   0.20160   0.05935  Uani   1.00
H18    H     0.37140   1.20370   0.23710   0.07100  Uiso   1.00
C19    C     0.20900   1.31700   0.17880   0.07623  Uani   1.00
H20    H     0.25310   1.39940   0.19730   0.09100  Uiso   1.00
C21    C     0.07370   1.30930   0.12820   0.08804  Uani   1.00
H22    H     0.02400   1.38700   0.11310   0.10600  Uiso   1.00
C23    C     0.01050   1.18680   0.09940   0.07477  Uani   1.00
H24    H    -0.08250   1.18130   0.06340   0.08900  Uiso   1.00
C25    C     0.08620   1.07110   0.12431   0.04172  Uani   1.00
C26    C     0.02580   0.93620   0.09581   0.04117  Uani   1.00
C27    C    -0.11230   0.91490   0.03700   0.06505  Uani   1.00
H28    H    -0.17050   0.98750   0.01550   0.07800  Uiso   1.00
C29    C    -0.16300   0.78840   0.01060   0.08095  Uani   1.00
H30    H    -0.25580   0.77430  -0.02940   0.09700  Uiso   1.00
C31    C    -0.07710   0.68280   0.04290   0.08450  Uani   1.00
H32    H    -0.10970   0.59540   0.02580   0.10200  Uiso   1.00
C33    C     0.06120   0.70890   0.10240   0.06719  Uani   1.00
H34    H     0.12030   0.63690   0.12480   0.08100  Uiso   1.00
Mn35   Mn    0.33426   0.87702   0.21977   0.03117  Uani   1.00
N36    N     0.42195   0.84828   0.35028   0.02720  Uani   1.00
N37    N     0.50952   0.79291   0.47665   0.02787  Uani   1.00
H38    H     0.52050   0.75260   0.51530   0.03300  Uiso   1.00
N39    N     0.22100   1.07800   0.17613   0.04152  Uani   1.00
N40    N     0.11240   0.83220   0.12870   0.04161  Uani   1.00
O41    O     0.51949   1.00500   0.30611   0.04046  Uani   1.00
O42    O     0.67764   1.09628   0.43447   0.04357  Uani   1.00
O43    O     0.77571   1.04350   0.58097   0.04938  Uani   1.00
H44    H     0.74470   1.05870   0.53380   0.07400  Uiso   1.00
O45    O     0.73270   0.90590   0.63746   0.05138  Uani   1.00
O46    O     0.53033   0.54281   0.38784   0.03893  Uani   1.00
O47    O     0.50908   0.35805   0.43295   0.04658  Uani   1.00
O48    O     0.34380   0.86440   0.12719   0.04315  Uani   1.00
H49    H     0.38400   0.92000   0.12200   0.07500  Uiso   1.00
H50    H     0.34000   0.79000   0.11300   0.09400  Uiso   1.00
O51    O     0.38120   0.66400   0.23749   0.04736  Uani   1.00
H52    H     0.40700   0.62000   0.22400   0.05200  Uiso   1.00
H53    H     0.42700   0.63100   0.28500   0.09700  Uiso   1.00
C54    C     0.41950   0.51690   0.11759   0.03239  Uani   1.00
C55    C     0.29590   0.44780  -0.07542   0.03684  Uani   1.00
C56    C     0.46580   0.42750   0.08918   0.02638  Uani   1.00
C57    C     0.41150   0.39480   0.01038   0.02760  Uani   1.00
C58    C     0.58810   0.26680   0.10694   0.02627  Uani   1.00
C59    C     0.69250   0.16220   0.14426   0.02772  Uani   1.00
C60    C     0.66270   0.02490   0.13429   0.02947  Uani   1.00
C61    C     0.76370  -0.06660   0.16458   0.04435  Uani   1.00
H62    H     0.74500  -0.15810   0.15710   0.05300  Uiso   1.00
C63    C     0.89160  -0.02290   0.20570   0.05677  Uani   1.00
H64    H     0.95790  -0.08530   0.22530   0.06800  Uiso   1.00
C65    C     0.92150   0.11110   0.21790   0.05229  Uani   1.00
H66    H     1.00840   0.13970   0.24720   0.06200  Uiso   1.00
C67    C     0.82120   0.20400   0.18624   0.04004  Uani   1.00
H68    H     0.84080   0.29520   0.19330   0.04800  Uiso   1.00
C69    C     0.53070  -0.02880   0.10050   0.03198  Uani   1.00
C70    C     0.72150   0.69890   0.29840   0.05935  Uani   1.00
H71    H     0.62860   0.70370   0.26290   0.07100  Uiso   1.00
C72    C     0.79100   0.81700   0.32120   0.07623  Uani   1.00
H73    H     0.74690   0.89940   0.30270   0.09100  Uiso   1.00
C74    C     0.92630   0.80930   0.37180   0.08804  Uani   1.00
H75    H     0.97600   0.88700   0.38690   0.10600  Uiso   1.00
C76    C     0.98950   0.68680   0.40060   0.07477  Uani   1.00
H77    H     1.08250   0.68130   0.43660   0.08900  Uiso   1.00
C78    C     0.91380   0.57110   0.37569   0.04172  Uani   1.00
C79    C     0.97420   0.43620   0.40419   0.04117  Uani   1.00
C80    C     1.11230   0.41490   0.46300   0.06505  Uani   1.00
H81    H     1.17050   0.48750   0.48450   0.07800  Uiso   1.00
C82    C     1.16300   0.28840   0.48940   0.08095  Uani   1.00
H83    H     1.25580   0.27430   0.52940   0.09700  Uiso   1.00
C84    C     1.07710   0.18280   0.45710   0.08450  Uani   1.00
H85    H     1.10970   0.09540   0.47420   0.10200  Uiso   1.00
C86    C     0.93880   0.20890   0.39760   0.06719  Uani   1.00
H87    H     0.87970   0.13690   0.37520   0.08100  Uiso   1.00
Mn88   Mn    0.66574   0.37702   0.28023   0.03117  Uani   1.00
N89    N     0.57805   0.34828   0.14972   0.02720  Uani   1.00
N90    N     0.49048   0.29291   0.02335   0.02787  Uani   1.00
H91    H     0.47950   0.25260  -0.01530   0.03300  Uiso   1.00
N92    N     0.77900   0.57800   0.32387   0.04152  Uani   1.00
N93    N     0.88760   0.33220   0.37130   0.04161  Uani   1.00
O94    O     0.48051   0.50500   0.19389   0.04046  Uani   1.00
O95    O     0.32236   0.59628   0.06553   0.04357  Uani   1.00
O96    O     0.22429   0.54350  -0.08097   0.04938  Uani   1.00
H97    H     0.25530   0.55870  -0.03380   0.07400  Uiso   1.00
O98    O     0.26730   0.40590  -0.13746   0.05138  Uani   1.00
O99    O     0.46967   0.04281   0.11216   0.03893  Uani   1.00
O100   O     0.49092  -0.14195   0.06705   0.04658  Uani   1.00
O101   O     0.65620   0.36440   0.37281   0.04315  Uani   1.00
H102   H     0.61600   0.42000   0.37800   0.07500  Uiso   1.00
H103   H     0.66000   0.29000   0.38700   0.09400  Uiso   1.00
O104   O     0.61880   0.16400   0.26251   0.04736  Uani   1.00
H105   H     0.59300   0.12000   0.27600   0.05200  Uiso   1.00
H106   H     0.57300   0.13100   0.21500   0.09700  Uiso   1.00
C107   C     0.41950  -0.01690   0.61759   0.03239  Uani   1.00
C108   C     0.29590   0.05220   0.42458   0.03684  Uani   1.00
C109   C     0.46580   0.07250   0.58918   0.02638  Uani   1.00
C110   C     0.41150   0.10520   0.51038   0.02760  Uani   1.00
C111   C     0.58810   0.23320   0.60694   0.02627  Uani   1.00
C112   C     0.69250   0.33780   0.64426   0.02772  Uani   1.00
C113   C     0.66270   0.47510   0.63429   0.02947  Uani   1.00
C114   C     0.76370   0.56660   0.66458   0.04435  Uani   1.00
H115   H     0.74500   0.65810   0.65710   0.05300  Uiso   1.00
C116   C     0.89160   0.52290   0.70570   0.05677  Uani   1.00
H117   H     0.95790   0.58530   0.72530   0.06800  Uiso   1.00
C118   C     0.92150   0.38890   0.71790   0.05229  Uani   1.00
H119   H     1.00840   0.36030   0.74720   0.06200  Uiso   1.00
C120   C     0.82120   0.29600   0.68624   0.04004  Uani   1.00
H121   H     0.84080   0.20480   0.69330   0.04800  Uiso   1.00
C122   C     0.53070   0.52880   0.60050   0.03198  Uani   1.00
C123   C     0.72150  -0.19890   0.79840   0.05935  Uani   1.00
H124   H     0.62860  -0.20370   0.76290   0.07100  Uiso   1.00
C125   C     0.79100  -0.31700   0.82120   0.07623  Uani   1.00
H126   H     0.74690  -0.39940   0.80270   0.09100  Uiso   1.00
C127   C     0.92630  -0.30930   0.87180   0.08804  Uani   1.00
H128   H     0.97600  -0.38700   0.88690   0.10600  Uiso   1.00
C129   C     0.98950  -0.18680   0.90060   0.07477  Uani   1.00
H130   H     1.08250  -0.18130   0.93660   0.08900  Uiso   1.00
C131   C     0.91380  -0.07110   0.87569   0.04172  Uani   1.00
C132   C     0.97420   0.06380   0.90419   0.04117  Uani   1.00
C133   C     1.11230   0.08510   0.96300   0.06505  Uani   1.00
H134   H     1.17050   0.01250   0.98450   0.07800  Uiso   1.00
C135   C     1.16300   0.21160   0.98940   0.08095  Uani   1.00
H136   H     1.25580   0.22570   1.02940   0.09700  Uiso   1.00
C137   C     1.07710   0.31720   0.95710   0.08450  Uani   1.00
H138   H     1.10970   0.40460   0.97420   0.10200  Uiso   1.00
C139   C     0.93880   0.29110   0.89760   0.06719  Uani   1.00
H140   H     0.87970   0.36310   0.87520   0.08100  Uiso   1.00
Mn141  Mn    0.66574   0.12298   0.78023   0.03117  Uani   1.00
N142   N     0.57805   0.15172   0.64972   0.02720  Uani   1.00
N143   N     0.49048   0.20709   0.52335   0.02787  Uani   1.00
H144   H     0.47950   0.24740   0.48470   0.03300  Uiso   1.00
N145   N     0.77900  -0.07800   0.82387   0.04152  Uani   1.00
N146   N     0.88760   0.16780   0.87130   0.04161  Uani   1.00
O147   O     0.48051  -0.00500   0.69389   0.04046  Uani   1.00
O148   O     0.32236  -0.09628   0.56553   0.04357  Uani   1.00
O149   O     0.22429  -0.04350   0.41903   0.04938  Uani   1.00
H150   H     0.25530  -0.05870   0.46620   0.07400  Uiso   1.00
O151   O     0.26730   0.09410   0.36254   0.05138  Uani   1.00
O152   O     0.46967   0.45719   0.61216   0.03893  Uani   1.00
O153   O     0.49092   0.64195   0.56705   0.04658  Uani   1.00
O154   O     0.65620   0.13560   0.87281   0.04315  Uani   1.00
H155   H     0.61600   0.08000   0.87800   0.07500  Uiso   1.00
H156   H     0.66000   0.21000   0.88700   0.09400  Uiso   1.00
O157   O     0.61880   0.33600   0.76251   0.04736  Uani   1.00
H158   H     0.59300   0.38000   0.77600   0.05200  Uiso   1.00
H159   H     0.57300   0.36900   0.71500   0.09700  Uiso   1.00
C160   C     0.58050   0.48310   0.88241   0.03239  Uani   1.00
C161   C     0.70410   0.55220   1.07542   0.03684  Uani   1.00
C162   C     0.53420   0.57250   0.91082   0.02638  Uani   1.00
C163   C     0.58850   0.60520   0.98962   0.02760  Uani   1.00
C164   C     0.41190   0.73320   0.89306   0.02627  Uani   1.00
C165   C     0.30750   0.83780   0.85574   0.02772  Uani   1.00
C166   C     0.33730   0.97510   0.86571   0.02947  Uani   1.00
C167   C     0.23630   1.06660   0.83542   0.04435  Uani   1.00
H168   H     0.25500   1.15810   0.84290   0.05300  Uiso   1.00
C169   C     0.10840   1.02290   0.79430   0.05677  Uani   1.00
H170   H     0.04210   1.08530   0.77470   0.06800  Uiso   1.00
C171   C     0.07850   0.88890   0.78210   0.05229  Uani   1.00
H172   H    -0.00840   0.86030   0.75280   0.06200  Uiso   1.00
C173   C     0.17880   0.79600   0.81376   0.04004  Uani   1.00
H174   H     0.15920   0.70480   0.80670   0.04800  Uiso   1.00
C175   C     0.46930   1.02880   0.89950   0.03198  Uani   1.00
C176   C     0.27850   0.30110   0.70160   0.05935  Uani   1.00
H177   H     0.37140   0.29630   0.73710   0.07100  Uiso   1.00
C178   C     0.20900   0.18300   0.67880   0.07623  Uani   1.00
H179   H     0.25310   0.10060   0.69730   0.09100  Uiso   1.00
C180   C     0.07370   0.19070   0.62820   0.08804  Uani   1.00
H181   H     0.02400   0.11300   0.61310   0.10600  Uiso   1.00
C182   C     0.01050   0.31320   0.59940   0.07477  Uani   1.00
H183   H    -0.08250   0.31870   0.56340   0.08900  Uiso   1.00
C184   C     0.08620   0.42890   0.62431   0.04172  Uani   1.00
C185   C     0.02580   0.56380   0.59581   0.04117  Uani   1.00
C186   C    -0.11230   0.58510   0.53700   0.06505  Uani   1.00
H187   H    -0.17050   0.51250   0.51550   0.07800  Uiso   1.00
C188   C    -0.16300   0.71160   0.51060   0.08095  Uani   1.00
H189   H    -0.25580   0.72570   0.47060   0.09700  Uiso   1.00
C190   C    -0.07710   0.81720   0.54290   0.08450  Uani   1.00
H191   H    -0.10970   0.90460   0.52580   0.10200  Uiso   1.00
C192   C     0.06120   0.79110   0.60240   0.06719  Uani   1.00
H193   H     0.12030   0.86310   0.62480   0.08100  Uiso   1.00
Mn194  Mn    0.33426   0.62298   0.71977   0.03117  Uani   1.00
N195   N     0.42195   0.65172   0.85028   0.02720  Uani   1.00
N196   N     0.50952   0.70709   0.97665   0.02787  Uani   1.00
H197   H     0.52050   0.74740   1.01530   0.03300  Uiso   1.00
N198   N     0.22100   0.42200   0.67613   0.04152  Uani   1.00
N199   N     0.11240   0.66780   0.62870   0.04161  Uani   1.00
O200   O     0.51949   0.49500   0.80611   0.04046  Uani   1.00
O201   O     0.67764   0.40372   0.93447   0.04357  Uani   1.00
O202   O     0.77571   0.45650   1.08097   0.04938  Uani   1.00
H203   H     0.74470   0.44130   1.03380   0.07400  Uiso   1.00
O204   O     0.73270   0.59410   1.13746   0.05138  Uani   1.00
O205   O     0.53033   0.95719   0.88784   0.03893  Uani   1.00
O206   O     0.50908   1.14195   0.93295   0.04658  Uani   1.00
O207   O     0.34380   0.63560   0.62719   0.04315  Uani   1.00
H208   H     0.38400   0.58000   0.62200   0.07500  Uiso   1.00
H209   H     0.34000   0.71000   0.61300   0.09400  Uiso   1.00
O210   O     0.38120   0.83600   0.73749   0.04736  Uani   1.00
H211   H     0.40700   0.88000   0.72400   0.05200  Uiso   1.00
H212   H     0.42700   0.86900   0.78500   0.09700  Uiso   1.00
loop_
_atom_site_aniso_label
_atom_site_aniso_U_11
_atom_site_aniso_U_22
_atom_site_aniso_U_33
_atom_site_aniso_U_12
_atom_site_aniso_U_13
_atom_site_aniso_U_23
C1        0.02830   0.02650   0.03850   0.00250   0.02220   0.00390
C2        0.03310   0.03390   0.03810   0.00320   0.02320  -0.00240
C3        0.02470   0.02170   0.03080  -0.00060   0.01890  -0.00210
C4        0.02410   0.02290   0.03320   0.00030   0.01930  -0.00210
C5        0.02570   0.02460   0.03200   0.00250   0.02160  -0.00020
C6        0.02850   0.03030   0.02710  -0.00350   0.02060  -0.00320
C7        0.02920   0.03160   0.03290  -0.00390   0.02380  -0.00150
C8        0.04510   0.03370   0.05600  -0.00830   0.03630  -0.00450
C10       0.03990   0.05140   0.07200  -0.02220   0.03700  -0.01420
C12       0.02770   0.05800   0.06200  -0.00850   0.02840  -0.01490
C14       0.03320   0.03690   0.04710  -0.00200   0.02730  -0.00580
C16       0.03620   0.03300   0.03110  -0.00220   0.02530  -0.00200
C17       0.05020   0.03750   0.06000  -0.00040   0.02810  -0.00640
C19       0.07700   0.03550   0.07500   0.00550   0.03900  -0.00530
C21       0.08400   0.04700   0.10400   0.02500   0.05600   0.00500
C23       0.05100   0.05900   0.08700   0.01800   0.03900   0.00800
C25       0.03850   0.04270   0.03860   0.00860   0.02530   0.00540
C26       0.03320   0.05240   0.03820   0.00550   0.02530   0.01030
C27       0.03390   0.06800   0.06900   0.01010   0.02770   0.02250
C29       0.03490   0.08200   0.07800  -0.00740   0.02280   0.02300
C31       0.05400   0.05900   0.09300  -0.02200   0.03500   0.00900
C33       0.04430   0.04530   0.07900  -0.00600   0.03180   0.00720
Mn35      0.02980   0.02920   0.03240   0.00077   0.02120   0.00144
N36       0.02750   0.02370   0.03120  -0.00150   0.02100  -0.00140
N37       0.02910   0.02730   0.02880   0.00110   0.02100   0.00230
N39       0.03830   0.03690   0.04070   0.00320   0.02480  -0.00110
N40       0.03220   0.03790   0.04700  -0.00030   0.02520   0.00610
O41       0.04010   0.04390   0.03760  -0.01020   0.02750   0.00170
O42       0.04070   0.03510   0.04440  -0.01380   0.02630  -0.00330
O43       0.04320   0.04810   0.04300  -0.01780   0.02550  -0.01250
O45       0.04920   0.05700   0.03470  -0.00370   0.02490  -0.00320
O46       0.04060   0.03540   0.05360   0.00880   0.03780   0.01350
O47       0.05670   0.03700   0.06360   0.01430   0.04870   0.01920
O48       0.05630   0.03510   0.05570  -0.00540   0.04580  -0.00270
O51       0.07020   0.03710   0.05250   0.01960   0.04960   0.01010
C54       0.02830   0.02650   0.03850  -0.00250   0.02220  -0.00390
C55       0.03310   0.03390   0.03810  -0.00320   0.02320   0.00240
C56       0.02470   0.02170   0.03080   0.00060   0.01890   0.00210
C57       0.02410   0.02290   0.03320  -0.00030   0.01930   0.00210
C58       0.02570   0.02460   0.03200  -0.00250   0.02160   0.00020
C59       0.02850   0.03030   0.02710   0.00350   0.02060   0.00320
C60       0.02920   0.03160   0.03290   0.00390   0.02380   0.00150
C61       0.04510   0.03370   0.05600   0.00830   0.03630   0.00450
C63       0.03990   0.05140   0.07200   0.02220   0.03700   0.01420
C65       0.02770   0.05800   0.06200   0.00850   0.02840   0.01490
C67       0.03320   0.03690   0.04710   0.00200   0.02730   0.00580
C69       0.03620   0.03300   0.03110   0.00220   0.02530   0.00200
C70       0.05020   0.03750   0.06000   0.00040   0.02810   0.00640
C72       0.07700   0.03550   0.07500  -0.00550   0.03900   0.00530
C74       0.08400   0.04700   0.10400  -0.02500   0.05600  -0.00500
C76       0.05100   0.05900   0.08700  -0.01800   0.03900  -0.00800
C78       0.03850   0.04270   0.03860  -0.00860   0.02530  -0.00540
C79       0.03320   0.05240   0.03820  -0.00550   0.02530  -0.01030
C80       0.03390   0.06800   0.06900  -0.01010   0.02770  -0.02250
C82       0.03490   0.08200   0.07800   0.00740   0.02280  -0.02300
C84       0.05400   0.05900   0.09300   0.02200   0.03500  -0.00900
C86       0.04430   0.04530   0.07900   0.00600   0.03180  -0.00720
Mn88      0.02980   0.02920   0.03240  -0.00077   0.02120  -0.00144
N89       0.02750   0.02370   0.03120   0.00150   0.02100   0.00140
N90       0.02910   0.02730   0.02880  -0.00110   0.02100  -0.00230
N92       0.03830   0.03690   0.04070  -0.00320   0.02480   0.00110
N93       0.03220   0.03790   0.04700   0.00030   0.02520  -0.00610
O94       0.04010   0.04390   0.03760   0.01020   0.02750  -0.00170
O95       0.04070   0.03510   0.04440   0.01380   0.02630   0.00330
O96       0.04320   0.04810   0.04300   0.01780   0.02550   0.01250
O98       0.04920   0.05700   0.03470   0.00370   0.02490   0.00320
O99       0.04060   0.03540   0.05360  -0.00880   0.03780  -0.01350
O100      0.05670   0.03700   0.06360  -0.01430   0.04870  -0.01920
O101      0.05630   0.03510   0.05570   0.00540   0.04580   0.00270
O104      0.07020   0.03710   0.05250  -0.01960   0.04960  -0.01010
C107      0.02830   0.02650   0.03850   0.00250   0.02220   0.00390
C108      0.03310   0.03390   0.03810   0.00320   0.02320  -0.00240
C109      0.02470   0.02170   0.03080  -0.00060   0.01890  -0.00210
C110      0.02410   0.02290   0.03320   0.00030   0.01930  -0.00210
C111      0.02570   0.02460   0.03200   0.00250   0.02160  -0.00020
C112      0.02850   0.03030   0.02710  -0.00350   0.02060  -0.00320
C113      0.02920   0.03160   0.03290  -0.00390   0.02380  -0.00150
C114      0.04510   0.03370   0.05600  -0.00830   0.03630  -0.00450
C116      0.03990   0.05140   0.07200  -0.02220   0.03700  -0.01420
C118      0.02770   0.05800   0.06200  -0.00850   0.02840  -0.01490
C120      0.03320   0.03690   0.04710  -0.00200   0.02730  -0.00580
C122      0.03620   0.03300   0.03110  -0.00220   0.02530  -0.00200
C123      0.05020   0.03750   0.06000  -0.00040   0.02810  -0.00640
C125      0.07700   0.03550   0.07500   0.00550   0.03900  -0.00530
C127      0.08400   0.04700   0.10400   0.02500   0.05600   0.00500
C129      0.05100   0.05900   0.08700   0.01800   0.03900   0.00800
C131      0.03850   0.04270   0.03860   0.00860   0.02530   0.00540
C132      0.03320   0.05240   0.03820   0.00550   0.02530   0.01030
C133      0.03390   0.06800   0.06900   0.01010   0.02770   0.02250
C135      0.03490   0.08200   0.07800  -0.00740   0.02280   0.02300
C137      0.05400   0.05900   0.09300  -0.02200   0.03500   0.00900
C139      0.04430   0.04530   0.07900  -0.00600   0.03180   0.00720
Mn141     0.02980   0.02920   0.03240   0.00077   0.02120   0.00144
N142      0.02750   0.02370   0.03120  -0.00150   0.02100  -0.00140
N143      0.02910   0.02730   0.02880   0.00110   0.02100   0.00230
N145      0.03830   0.03690   0.04070   0.00320   0.02480  -0.00110
N146      0.03220   0.03790   0.04700  -0.00030   0.02520   0.00610
O147      0.04010   0.04390   0.03760  -0.01020   0.02750   0.00170
O148      0.04070   0.03510   0.04440  -0.01380   0.02630  -0.00330
O149      0.04320   0.04810   0.04300  -0.01780   0.02550  -0.01250
O151      0.04920   0.05700   0.03470  -0.00370   0.02490  -0.00320
O152      0.04060   0.03540   0.05360   0.00880   0.03780   0.01350
O153      0.05670   0.03700   0.06360   0.01430   0.04870   0.01920
O154      0.05630   0.03510   0.05570  -0.00540   0.04580  -0.00270
O157      0.07020   0.03710   0.05250   0.01960   0.04960   0.01010
C160      0.02830   0.02650   0.03850  -0.00250   0.02220  -0.00390
C161      0.03310   0.03390   0.03810  -0.00320   0.02320   0.00240
C162      0.02470   0.02170   0.03080   0.00060   0.01890   0.00210
C163      0.02410   0.02290   0.03320  -0.00030   0.01930   0.00210
C164      0.02570   0.02460   0.03200  -0.00250   0.02160   0.00020
C165      0.02850   0.03030   0.02710   0.00350   0.02060   0.00320
C166      0.02920   0.03160   0.03290   0.00390   0.02380   0.00150
C167      0.04510   0.03370   0.05600   0.00830   0.03630   0.00450
C169      0.03990   0.05140   0.07200   0.02220   0.03700   0.01420
C171      0.02770   0.05800   0.06200   0.00850   0.02840   0.01490
C173      0.03320   0.03690   0.04710   0.00200   0.02730   0.00580
C175      0.03620   0.03300   0.03110   0.00220   0.02530   0.00200
C176      0.05020   0.03750   0.06000   0.00040   0.02810   0.00640
C178      0.07700   0.03550   0.07500  -0.00550   0.03900   0.00530
C180      0.08400   0.04700   0.10400  -0.02500   0.05600  -0.00500
C182      0.05100   0.05900   0.08700  -0.01800   0.03900  -0.00800
C184      0.03850   0.04270   0.03860  -0.00860   0.02530  -0.00540
C185      0.03320   0.05240   0.03820  -0.00550   0.02530  -0.01030
C186      0.03390   0.06800   0.06900  -0.01010   0.02770  -0.02250
C188      0.03490   0.08200   0.07800   0.00740   0.02280  -0.02300
C190      0.05400   0.05900   0.09300   0.02200   0.03500  -0.00900
C192      0.04430   0.04530   0.07900   0.00600   0.03180  -0.00720
Mn194     0.02980   0.02920   0.03240  -0.00077   0.02120  -0.00144
N195      0.02750   0.02370   0.03120   0.00150   0.02100   0.00140
N196      0.02910   0.02730   0.02880  -0.00110   0.02100  -0.00230
N198      0.03830   0.03690   0.04070  -0.00320   0.02480   0.00110
N199      0.03220   0.03790   0.04700   0.00030   0.02520  -0.00610
O200      0.04010   0.04390   0.03760   0.01020   0.02750  -0.00170
O201      0.04070   0.03510   0.04440   0.01380   0.02630   0.00330
O202      0.04320   0.04810   0.04300   0.01780   0.02550   0.01250
O204      0.04920   0.05700   0.03470   0.00370   0.02490   0.00320
O205      0.04060   0.03540   0.05360  -0.00880   0.03780  -0.01350
O206      0.05670   0.03700   0.06360  -0.01430   0.04870  -0.01920
O207      0.05630   0.03510   0.05570   0.00540   0.04580   0.00270
O210      0.07020   0.03710   0.05250  -0.01960   0.04960  -0.01010
loop_
_geom_bond_atom_site_label_1
_geom_bond_atom_site_label_2
_geom_bond_distance
_geom_bond_site_symmetry_2
_ccdc_geom_bond_type
C1     C3      1.480   .     S
C1     O41     1.258   .     S
C1     O42     1.261   .     S
C2     C4      1.477   .     S
C2     O43     1.323   .     S
C2     O45     1.209   .     S
C3     C4      1.371   .     S
C3     N36     1.384   .     S
C4     N37     1.372   .     S
C5     C6      1.481   .     S
C5     N37     1.345   .     S
C5     N36     1.332   .     S
C6     C7      1.401   .     S
C6     C14     1.382   .     S
C7     C8      1.391   .     S
C7     C16     1.516   .     S
C8     H9      0.930   .     S
C8     C10     1.384   .     S
C10    H11     0.930   .     S
C10    C12     1.367   .     S
C12    H13     0.930   .     S
C12    C14     1.387   .     S
C14    H15     0.929   .     S
C16    O46     1.272   .     S
C16    O47     1.245   .     S
C17    H18     0.930   .     S
C17    C19     1.374   .     S
C17    N39     1.332   .     S
C19    H20     0.930   .     S
C19    C21     1.358   .     S
C21    H22     0.930   .     S
C21    C23     1.371   .     S
C23    H24     0.930   .     S
C23    C25     1.388   .     S
C25    C26     1.471   .     S
C25    N39     1.348   .     S
C26    C27     1.385   .     S
C26    N40     1.350   .     S
C27    H28     0.930   .     S
C27    C29     1.359   .     S
C29    H30     0.930   .     S
C29    C31     1.359   .     S
C31    H32     0.930   .     S
C31    C33     1.395   .     S
C33    H34     0.929   .     S
C33    N40     1.331   .     S
Mn35   N36     2.236   .     S
Mn35   O48     2.161   .     S
Mn35   O51     2.173   .     S
Mn35   N39     2.299   .     S
Mn35   N40     2.248   .     S
Mn35   O41     2.236   .     S
N37    H38     0.860   .     S
O43    H44     0.819   .     S
O48    H49     0.853   .     S
O48    H50     0.792   .     S
O51    H52     0.752   .     S
O51    H53     0.825   .     S
C54    C56     1.480   .     S
C54    O94     1.258   .     S
C54    O95     1.261   .     S
C55    C57     1.477   .     S
C55    O96     1.323   .     S
C55    O98     1.209   .     S
C56    C57     1.371   .     S
C56    N89     1.384   .     S
C57    N90     1.372   .     S
C58    C59     1.481   .     S
C58    N90     1.345   .     S
C58    N89     1.332   .     S
C59    C60     1.401   .     S
C59    C67     1.382   .     S
C60    C61     1.391   .     S
C60    C69     1.516   .     S
C61    H62     0.930   .     S
C61    C63     1.384   .     S
C63    H64     0.930   .     S
C63    C65     1.367   .     S
C65    H66     0.930   .     S
C65    C67     1.387   .     S
C67    H68     0.929   .     S
C69    O99     1.272   .     S
C69    O100    1.245   .     S
C70    H71     0.930   .     S
C70    C72     1.374   .     S
C70    N92     1.332   .     S
C72    H73     0.930   .     S
C72    C74     1.358   .     S
C74    H75     0.930   .     S
C74    C76     1.371   .     S
C76    H77     0.930   .     S
C76    C78     1.388   .     S
C78    C79     1.471   .     S
C78    N92     1.348   .     S
C79    C80     1.385   .     S
C79    N93     1.350   .     S
C80    H81     0.930   .     S
C80    C82     1.359   .     S
C82    H83     0.930   .     S
C82    C84     1.359   .     S
C84    H85     0.930   .     S
C84    C86     1.395   .     S
C86    H87     0.929   .     S
C86    N93     1.331   .     S
Mn88   N89     2.236   .     S
Mn88   O101    2.161   .     S
Mn88   O104    2.173   .     S
Mn88   N92     2.299   .     S
Mn88   N93     2.248   .     S
Mn88   O94     2.236   .     S
N90    H91     0.860   .     S
O96    H97     0.819   .     S
O101   H102    0.853   .     S
O101   H103    0.792   .     S
O104   H105    0.752   .     S
O104   H106    0.825   .     S
C107   C109    1.480   .     S
C107   O147    1.258   .     S
C107   O148    1.261   .     S
C108   C110    1.477   .     S
C108   O149    1.323   .     S
C108   O151    1.209   .     S
C109   C110    1.371   .     S
C109   N142    1.384   .     S
C110   N143    1.372   .     S
C111   C112    1.481   .     S
C111   N143    1.345   .     S
C111   N142    1.332   .     S
C112   C113    1.401   .     S
C112   C120    1.382   .     S
C113   C114    1.391   .     S
C113   C122    1.516   .     S
C114   H115    0.930   .     S
C114   C116    1.384   .     S
C116   H117    0.930   .     S
C116   C118    1.367   .     S
C118   H119    0.930   .     S
C118   C120    1.387   .     S
C120   H121    0.929   .     S
C122   O152    1.272   .     S
C122   O153    1.245   .     S
C123   H124    0.930   .     S
C123   C125    1.374   .     S
C123   N145    1.332   .     S
C125   H126    0.930   .     S
C125   C127    1.358   .     S
C127   H128    0.930   .     S
C127   C129    1.371   .     S
C129   H130    0.930   .     S
C129   C131    1.388   .     S
C131   C132    1.471   .     S
C131   N145    1.348   .     S
C132   C133    1.385   .     S
C132   N146    1.350   .     S
C133   H134    0.930   .     S
C133   C135    1.359   .     S
C135   H136    0.930   .     S
C135   C137    1.359   .     S
C137   H138    0.930   .     S
C137   C139    1.395   .     S
C139   H140    0.929   .     S
C139   N146    1.331   .     S
Mn141  N142    2.236   .     S
Mn141  O154    2.161   .     S
Mn141  O157    2.173   .     S
Mn141  N145    2.299   .     S
Mn141  N146    2.248   .     S
Mn141  O147    2.236   .     S
N143   H144    0.860   .     S
O149   H150    0.819   .     S
O154   H155    0.853   .     S
O154   H156    0.792   .     S
O157   H158    0.752   .     S
O157   H159    0.825   .     S
C160   C162    1.480   .     S
C160   O200    1.258   .     S
C160   O201    1.261   .     S
C161   C163    1.477   .     S
C161   O202    1.323   .     S
C161   O204    1.209   .     S
C162   C163    1.371   .     S
C162   N195    1.384   .     S
C163   N196    1.372   .     S
C164   C165    1.481   .     S
C164   N196    1.345   .     S
C164   N195    1.332   .     S
C165   C166    1.401   .     S
C165   C173    1.382   .     S
C166   C167    1.391   .     S
C166   C175    1.516   .     S
C167   H168    0.930   .     S
C167   C169    1.384   .     S
C169   H170    0.930   .     S
C169   C171    1.367   .     S
C171   H172    0.930   .     S
C171   C173    1.387   .     S
C173   H174    0.929   .     S
C175   O205    1.272   .     S
C175   O206    1.245   .     S
C176   H177    0.930   .     S
C176   C178    1.374   .     S
C176   N198    1.332   .     S
C178   H179    0.930   .     S
C178   C180    1.358   .     S
C180   H181    0.930   .     S
C180   C182    1.371   .     S
C182   H183    0.930   .     S
C182   C184    1.388   .     S
C184   C185    1.471   .     S
C184   N198    1.348   .     S
C185   C186    1.385   .     S
C185   N199    1.350   .     S
C186   H187    0.930   .     S
C186   C188    1.359   .     S
C188   H189    0.930   .     S
C188   C190    1.359   .     S
C190   H191    0.930   .     S
C190   C192    1.395   .     S
C192   H193    0.929   .     S
C192   N199    1.331   .     S
Mn194  N195    2.236   .     S
Mn194  O207    2.161   .     S
Mn194  O210    2.173   .     S
Mn194  N198    2.299   .     S
Mn194  N199    2.248   .     S
Mn194  O200    2.236   .     S
N196   H197    0.860   .     S
O202   H203    0.819   .     S
O207   H208    0.853   .     S
O207   H209    0.792   .     S
O210   H211    0.752   .     S
O210   H212    0.825   .     S
