data_YAHVUC_FSR
_audit_creation_date              2024-06-11
_audit_creation_method            'Materials Studio'
_symmetry_space_group_name_H-M    'P1'
_symmetry_Int_Tables_number       1
_symmetry_cell_setting            triclinic
loop_
_symmetry_equiv_pos_as_xyz
  x,y,z
_cell_length_a                    7.1134
_cell_length_b                    13.8053
_cell_length_c                    18.4479
_cell_angle_alpha                 106.6650
_cell_angle_beta                  100.5910
_cell_angle_gamma                 97.9960
loop_
_atom_site_label
_atom_site_type_symbol
_atom_site_fract_x
_atom_site_fract_y
_atom_site_fract_z
_atom_site_U_iso_or_equiv
_atom_site_adp_type
_atom_site_occupancy
C1     C     0.26350   0.11050   0.51950   0.00000  Uiso   1.00
C2     C     0.29080   0.37770   0.15920   0.00000  Uiso   1.00
H3     H     0.33790   0.43460   0.20580   0.00000  Uiso   1.00
C4     C     0.18280   0.22330   0.07930   0.00000  Uiso   1.00
H5     H     0.14040   0.15040   0.05970   0.00000  Uiso   1.00
C6     C     0.18530   0.28670   0.03540   0.00000  Uiso   1.00
H7     H     0.14630   0.26710   0.98030   0.00000  Uiso   1.00
C8     C     0.39120   0.57040   0.12880   0.00000  Uiso   1.00
H9     H     0.43560   0.57190   0.18100   0.00000  Uiso   1.00
C10    C     0.29380   0.47980   0.07050   0.00000  Uiso   1.00
C11    C     0.42080   0.65760   0.10810   0.00000  Uiso   1.00
H12    H     0.48870   0.72120   0.14620   0.00000  Uiso   1.00
C13    C     0.35230   0.65400   0.03150   0.00000  Uiso   1.00
H14    H     0.36670   0.71450   0.01650   0.00000  Uiso   1.00
C15    C     0.26320   0.55920   0.97870   0.00000  Uiso   1.00
C16    C     0.23410   0.62110   0.86360   0.00000  Uiso   1.00
H17    H     0.30550   0.68950   0.89070   0.00000  Uiso   1.00
C18    C     0.07130   0.48360   0.77310   0.00000  Uiso   1.00
H19    H     0.00470   0.43750   0.72300   0.00000  Uiso   1.00
C20    C     0.09410   0.45770   0.83830   0.00000  Uiso   1.00
H21    H     0.04840   0.39220   0.84290   0.00000  Uiso   1.00
C22    C     0.84680   0.58540   0.62540   0.00000  Uiso   1.00
C23    C     0.66470   0.54060   0.56170   0.00000  Uiso   1.00
C24    C     0.48080   0.52800   0.57690   0.00000  Uiso   1.00
C25    C     0.31630   0.48740   0.51470   0.00000  Uiso   1.00
H26    H     0.18990   0.47880   0.52490   0.00000  Uiso   1.00
C27    C     0.45130   0.55140   0.65840   0.00000  Uiso   1.00
C28    C     0.17640   0.87500   0.66220   0.00000  Uiso   1.00
H29    H     0.17330   0.91860   0.71210   0.00000  Uiso   1.00
C30    C     0.17580   0.74190   0.56780   0.00000  Uiso   1.00
H31    H     0.16880   0.67240   0.53780   0.00000  Uiso   1.00
C32    C     0.19250   0.82290   0.53960   0.00000  Uiso   1.00
H33    H     0.20490   0.82140   0.48890   0.00000  Uiso   1.00
C34    C     0.21220   0.00710   0.59670   0.00000  Uiso   1.00
C35    C     0.19630   0.09800   0.66020   0.00000  Uiso   1.00
H36    H     0.16820   0.09150   0.70710   0.00000  Uiso   1.00
C37    C     0.22300   0.18730   0.64850   0.00000  Uiso   1.00
H38    H     0.21250   0.24560   0.68900   0.00000  Uiso   1.00
C39    C     0.26500   0.20500   0.58160   0.00000  Uiso   1.00
H40    H     0.29190   0.27200   0.57690   0.00000  Uiso   1.00
C41    C     0.30470   0.02920   0.39060   0.00000  Uiso   1.00
H42    H     0.29680   0.96080   0.39280   0.00000  Uiso   1.00
C43    C     0.32520   0.06080   0.32850   0.00000  Uiso   1.00
H44    H     0.33330   0.01740   0.27930   0.00000  Uiso   1.00
C45    C     0.31530   0.19710   0.42180   0.00000  Uiso   1.00
H46    H     0.31550   0.26620   0.45080   0.00000  Uiso   1.00
C47    C     0.74390   0.06120   0.90250   0.00000  Uiso   1.00
C48    C     0.61920   0.02480   0.95250   0.00000  Uiso   1.00
C49    C     0.65430   0.08320   0.02970   0.00000  Uiso   1.00
H50    H     0.76160   0.14020   0.05080   0.00000  Uiso   1.00
C51    C     0.46360   0.93930   0.92230   0.00000  Uiso   1.00
C52    C     0.42910   0.86800   0.84060   0.00000  Uiso   1.00
Co53   Co    0.69179   0.76604   0.74114   0.00000  Uiso   1.00
Co54   Co    0.17742   0.67603   0.71517   0.00000  Uiso   1.00
N55    N     0.25160   0.28130   0.15750   0.00000  Uiso   1.00
N56    N     0.25680   0.38690   0.08750   0.00000  Uiso   1.00
N57    N     0.23110   0.47140   0.99570   0.00000  Uiso   1.00
N58    N     0.19860   0.54660   0.89820   0.00000  Uiso   1.00
N59    N     0.15640   0.58560   0.78780   0.00000  Uiso   1.00
N60    N     0.17050   0.77310   0.64400   0.00000  Uiso   1.00
N61    N     0.18750   0.90740   0.60030   0.00000  Uiso   1.00
N62    N     0.24150   0.01610   0.52820   0.00000  Uiso   1.00
N63    N     0.33220   0.16520   0.34790   0.00000  Uiso   1.00
N64    N     0.29780   0.11450   0.44910   0.00000  Uiso   1.00
O65    O     0.00020   0.55260   0.61520   0.00000  Uiso   1.00
O66    O     0.85020   0.65610   0.68700   0.00000  Uiso   1.00
O67    O     0.43210   0.47960   0.68520   0.00000  Uiso   1.00
O68    O     0.44080   0.64560   0.69310   0.00000  Uiso   1.00
O69    O     0.55650   0.87570   0.80410   0.00000  Uiso   1.00
O70    O     0.26860   0.80170   0.81440   0.00000  Uiso   1.00
O71    O     0.91310   0.04690   0.90930   0.00000  Uiso   1.00
O72    O     0.66300   0.10800   0.86030   0.00000  Uiso   1.00
O73    O     0.94510   0.88080   0.79670   0.00000  Uiso   1.00
H74    H     0.92540   0.92350   0.83820   0.00000  Uiso   1.00
H75    H     0.03910   0.85330   0.81410   0.00000  Uiso   1.00
C76    C     0.73650   0.88950   0.48050   0.00000  Uiso   1.00
C77    C     0.70920   0.62230   0.84080   0.00000  Uiso   1.00
H78    H     0.66210   0.56540   0.79420   0.00000  Uiso   1.00
C79    C     0.81720   0.77670   0.92070   0.00000  Uiso   1.00
H80    H     0.85960   0.84960   0.94030   0.00000  Uiso   1.00
C81    C     0.81470   0.71330   0.96460   0.00000  Uiso   1.00
H82    H     0.85370   0.73290   0.01970   0.00000  Uiso   1.00
C83    C     0.60880   0.42960   0.87120   0.00000  Uiso   1.00
H84    H     0.56440   0.42810   0.81900   0.00000  Uiso   1.00
C85    C     0.70620   0.52020   0.92950   0.00000  Uiso   1.00
C86    C     0.57920   0.34240   0.89190   0.00000  Uiso   1.00
H87    H     0.51130   0.27880   0.85380   0.00000  Uiso   1.00
C88    C     0.64770   0.34600   0.96850   0.00000  Uiso   1.00
H89    H     0.63330   0.28550   0.98350   0.00000  Uiso   1.00
C90    C     0.73680   0.44080   0.02130   0.00000  Uiso   1.00
C91    C     0.76590   0.37890   0.13640   0.00000  Uiso   1.00
H92    H     0.69450   0.31050   0.10930   0.00000  Uiso   1.00
C93    C     0.92870   0.51640   0.22690   0.00000  Uiso   1.00
H94    H     0.99530   0.56250   0.27700   0.00000  Uiso   1.00
C95    C     0.90590   0.54230   0.16170   0.00000  Uiso   1.00
H96    H     0.95160   0.60780   0.15710   0.00000  Uiso   1.00
C97    C     0.15320   0.41460   0.37460   0.00000  Uiso   1.00
C98    C     0.33530   0.45940   0.43830   0.00000  Uiso   1.00
C99    C     0.51920   0.47200   0.42310   0.00000  Uiso   1.00
C100   C     0.68370   0.51260   0.48530   0.00000  Uiso   1.00
H101   H     0.81010   0.52120   0.47510   0.00000  Uiso   1.00
C102   C     0.54870   0.44860   0.34160   0.00000  Uiso   1.00
C103   C     0.82360   0.12500   0.33780   0.00000  Uiso   1.00
H104   H     0.82670   0.08140   0.28790   0.00000  Uiso   1.00
C105   C     0.82420   0.25810   0.43220   0.00000  Uiso   1.00
H106   H     0.83120   0.32760   0.46220   0.00000  Uiso   1.00
C107   C     0.80750   0.17710   0.46040   0.00000  Uiso   1.00
H108   H     0.79510   0.17860   0.51110   0.00000  Uiso   1.00
C109   C     0.78780   0.99290   0.40330   0.00000  Uiso   1.00
C110   C     0.80370   0.90200   0.33980   0.00000  Uiso   1.00
H111   H     0.83180   0.90850   0.29290   0.00000  Uiso   1.00
C112   C     0.77700   0.81270   0.35150   0.00000  Uiso   1.00
H113   H     0.78750   0.75440   0.31100   0.00000  Uiso   1.00
C114   C     0.73500   0.79500   0.41840   0.00000  Uiso   1.00
H115   H     0.70810   0.72800   0.42310   0.00000  Uiso   1.00
C116   C     0.69530   0.97080   0.60940   0.00000  Uiso   1.00
H117   H     0.70320   0.03920   0.60720   0.00000  Uiso   1.00
C118   C     0.67480   0.93920   0.67150   0.00000  Uiso   1.00
H119   H     0.66670   0.98260   0.72070   0.00000  Uiso   1.00
C120   C     0.68470   0.80290   0.57820   0.00000  Uiso   1.00
H121   H     0.68450   0.73380   0.54920   0.00000  Uiso   1.00
C122   C     0.25610   0.93880   0.09750   0.00000  Uiso   1.00
C123   C     0.38080   0.97520   0.04750   0.00000  Uiso   1.00
C124   C     0.34570   0.91680   0.97030   0.00000  Uiso   1.00
H125   H     0.23840   0.85980   0.94920   0.00000  Uiso   1.00
C126   C     0.53640   0.06070   0.07770   0.00000  Uiso   1.00
C127   C     0.57090   0.13200   0.15940   0.00000  Uiso   1.00
Co128  Co    0.30821   0.23396   0.25886   0.00000  Uiso   1.00
Co129  Co    0.82258   0.32397   0.28483   0.00000  Uiso   1.00
N130   N     0.74840   0.71870   0.84250   0.00000  Uiso   1.00
N131   N     0.74320   0.61310   0.91250   0.00000  Uiso   1.00
N132   N     0.76890   0.52860   0.00430   0.00000  Uiso   1.00
N133   N     0.80140   0.45340   0.10180   0.00000  Uiso   1.00
N134   N     0.84360   0.41440   0.21220   0.00000  Uiso   1.00
N135   N     0.82950   0.22690   0.35600   0.00000  Uiso   1.00
N136   N     0.81250   0.09260   0.39970   0.00000  Uiso   1.00
N137   N     0.75850   0.98390   0.47180   0.00000  Uiso   1.00
N138   N     0.66780   0.83480   0.65210   0.00000  Uiso   1.00
N139   N     0.70220   0.88550   0.55090   0.00000  Uiso   1.00
O140   O     0.99980   0.44740   0.38480   0.00000  Uiso   1.00
O141   O     0.14980   0.34390   0.31300   0.00000  Uiso   1.00
O142   O     0.56790   0.52040   0.31480   0.00000  Uiso   1.00
O143   O     0.55920   0.35440   0.30690   0.00000  Uiso   1.00
O144   O     0.44350   0.12430   0.19590   0.00000  Uiso   1.00
O145   O     0.73140   0.19830   0.18560   0.00000  Uiso   1.00
O146   O     0.08690   0.95310   0.09070   0.00000  Uiso   1.00
O147   O     0.33700   0.89200   0.13970   0.00000  Uiso   1.00
O148   O     0.05490   0.11920   0.20330   0.00000  Uiso   1.00
H149   H     0.07460   0.07650   0.16180   0.00000  Uiso   1.00
H150   H     0.96090   0.14670   0.18590   0.00000  Uiso   1.00
loop_
_geom_bond_atom_site_label_1
_geom_bond_atom_site_label_2
_geom_bond_distance
_geom_bond_site_symmetry_2
_ccdc_geom_bond_type
C1     C39     1.466   .     S
C1     N62     1.349   .     S
C1     N64     1.380   .     S
C2     H3      0.950   .     S
C2     N55     1.311   .     S
C2     N56     1.346   .     S
C4     H5      0.949   .     S
C4     C6      1.353   .     S
C4     N55     1.390   .     S
C6     H7      0.949   1_554 S
C6     N56     1.399   .     S
H7     C6      0.949   1_556 S
C8     H9      0.950   .     S
C8     C10     1.384   .     S
C8     C11     1.365   .     S
C10    N57     1.336   1_554 S
C10    N56     1.407   .     S
C11    H12     0.949   .     S
C11    C13     1.392   .     S
C13    H14     0.951   .     S
C13    C15     1.369   1_554 S
C15    C13     1.369   1_556 S
C15    N58     1.423   .     S
C15    N57     1.337   .     S
C16    H17     0.950   .     S
C16    N59     1.322   .     S
C16    N58     1.376   .     S
C18    H19     0.949   .     S
C18    C20     1.339   .     S
C18    N59     1.381   .     S
C20    H21     0.950   .     S
C20    N58     1.395   .     S
C22    C23     1.497   .     S
C22    O65     1.263   1_655 S
C22    O66     1.262   .     S
C23    C24     1.386   .     S
C23    C100    1.388   .     S
C24    C25     1.398   .     S
C24    C27     1.505   .     S
C25    H26     0.950   .     S
C25    C98     1.388   .     S
C27    O67     1.230   .     S
C27    O68     1.294   .     S
C28    H29     0.951   .     S
C28    N60     1.342   .     S
C28    N61     1.352   .     S
C30    H31     0.949   .     S
C30    C32     1.362   .     S
C30    N60     1.356   .     S
C32    H33     0.950   .     S
C32    N61     1.376   .     S
C34    C35     1.485   .     S
C34    N61     1.385   1_545 S
C34    N62     1.355   .     S
C35    H36     0.949   .     S
C35    C37     1.306   .     S
C37    H38     0.951   .     S
C37    C39     1.400   .     S
C39    H40     0.950   .     S
C41    H42     0.951   1_545 S
C41    C43     1.362   .     S
C41    N64     1.364   .     S
H42    C41     0.951   1_565 S
C43    H44     0.950   .     S
C43    N63     1.373   .     S
C45    H46     0.950   .     S
C45    N63     1.341   .     S
C45    N64     1.372   .     S
C47    C48     1.527   .     S
C47    O71     1.236   .     S
C47    O72     1.258   .     S
C48    C49     1.377   1_556 S
C48    C51     1.401   1_545 S
C49    C48     1.377   1_554 S
C49    H50     0.949   .     S
C49    C126    1.394   .     S
C51    C48     1.401   1_565 S
C51    C52     1.499   .     S
C51    C124    1.394   .     S
C52    O69     1.235   .     S
C52    O70     1.276   .     S
Co53   O66     2.143   .     S
Co53   O73     2.098   .     S
Co53   N130    2.141   .     S
Co53   N138    2.113   .     S
Co53   O68     2.118   .     S
Co53   O69     2.092   .     S
Co54   N59     2.087   .     S
Co54   O68     2.062   .     S
Co54   O70     2.052   .     S
Co54   N60     2.127   .     S
Co54   O65     2.154   .     S
Co54   O66     2.249   1_455 S
N55    Co128   2.141   .     S
N57    C10     1.336   1_556 S
N61    C34     1.385   1_565 S
N63    Co128   2.113   .     S
O65    C22     1.263   1_455 S
O66    Co54    2.249   1_655 S
O73    H74     0.870   .     S
O73    H75     0.869   1_655 S
H75    O73     0.869   1_455 S
C76    C114    1.466   .     S
C76    N137    1.349   .     S
C76    N139    1.380   .     S
C77    H78     0.950   .     S
C77    N130    1.311   .     S
C77    N131    1.346   .     S
C79    H80     0.949   .     S
C79    C81     1.353   .     S
C79    N130    1.390   .     S
C81    H82     0.949   1_556 S
C81    N131    1.399   .     S
H82    C81     0.949   1_554 S
C83    H84     0.950   .     S
C83    C85     1.384   .     S
C83    C86     1.365   .     S
C85    N132    1.336   1_556 S
C85    N131    1.407   .     S
C86    H87     0.949   .     S
C86    C88     1.392   .     S
C88    H89     0.951   .     S
C88    C90     1.369   1_556 S
C90    C88     1.369   1_554 S
C90    N133    1.423   .     S
C90    N132    1.337   .     S
C91    H92     0.950   .     S
C91    N134    1.322   .     S
C91    N133    1.376   .     S
C93    H94     0.949   .     S
C93    C95     1.339   .     S
C93    N134    1.381   .     S
C95    H96     0.950   .     S
C95    N133    1.395   .     S
C97    C98     1.497   .     S
C97    O140    1.263   1_455 S
C97    O141    1.262   .     S
C98    C99     1.386   .     S
C99    C100    1.398   .     S
C99    C102    1.505   .     S
C100   H101    0.950   .     S
C102   O142    1.230   .     S
C102   O143    1.294   .     S
C103   H104    0.951   .     S
C103   N135    1.342   .     S
C103   N136    1.352   .     S
C105   H106    0.949   .     S
C105   C107    1.362   .     S
C105   N135    1.356   .     S
C107   H108    0.950   .     S
C107   N136    1.376   .     S
C109   C110    1.485   .     S
C109   N136    1.385   1_565 S
C109   N137    1.355   .     S
C110   H111    0.949   .     S
C110   C112    1.306   .     S
C112   H113    0.951   .     S
C112   C114    1.400   .     S
C114   H115    0.950   .     S
C116   H117    0.951   1_565 S
C116   C118    1.362   .     S
C116   N139    1.364   .     S
H117   C116    0.951   1_545 S
C118   H119    0.950   .     S
C118   N138    1.373   .     S
C120   H121    0.950   .     S
C120   N138    1.341   .     S
C120   N139    1.372   .     S
C122   C123    1.527   .     S
C122   O146    1.236   .     S
C122   O147    1.258   .     S
C123   C124    1.377   1_554 S
C123   C126    1.401   1_565 S
C124   C123    1.377   1_556 S
C124   H125    0.949   .     S
C126   C123    1.401   1_545 S
C126   C127    1.499   .     S
C127   O144    1.235   .     S
C127   O145    1.276   .     S
Co128  O141    2.143   .     S
Co128  O148    2.098   .     S
Co128  O143    2.118   .     S
Co128  O144    2.092   .     S
Co129  N134    2.087   .     S
Co129  O143    2.062   .     S
Co129  O145    2.052   .     S
Co129  N135    2.127   .     S
Co129  O140    2.154   .     S
Co129  O141    2.249   1_655 S
N132   C85     1.336   1_554 S
N136   C109    1.385   1_545 S
O140   C97     1.263   1_655 S
O141   Co129   2.249   1_455 S
O148   H149    0.870   .     S
O148   H150    0.869   1_455 S
H150   O148    0.869   1_655 S
