data_YAZFOW_FSR
_audit_creation_date              2024-06-11
_audit_creation_method            'Materials Studio'
_symmetry_space_group_name_H-M    'P1'
_symmetry_Int_Tables_number       1
_symmetry_cell_setting            triclinic
loop_
_symmetry_equiv_pos_as_xyz
  x,y,z
_cell_length_a                    15.5665
_cell_length_b                    15.5665
_cell_length_c                    12.3201
_cell_angle_alpha                 90.0000
_cell_angle_beta                  90.0000
_cell_angle_gamma                 90.0000
loop_
_atom_site_label
_atom_site_type_symbol
_atom_site_fract_x
_atom_site_fract_y
_atom_site_fract_z
_atom_site_U_iso_or_equiv
_atom_site_adp_type
_atom_site_occupancy
O1     O     0.20853   0.40768   0.00497   0.00000  Uiso   1.00
O2     O     0.11708   0.38895   0.86416   0.00000  Uiso   1.00
C3     C     0.06782   0.46332   0.13110   0.00000  Uiso   1.00
H4     H     0.11400   0.43980   0.16870   0.00000  Uiso   1.00
C5     C     0.06750   0.46143   0.01850   0.00000  Uiso   1.00
C6     C     0.13719   0.41598   0.95874   0.00000  Uiso   1.00
O7     O     0.70853   0.90768   0.50497   0.00000  Uiso   1.00
O8     O     0.61708   0.88895   0.36416   0.00000  Uiso   1.00
C9     C     0.56782   0.96332   0.63110   0.00000  Uiso   1.00
H10    H     0.61400   0.93980   0.66870   0.00000  Uiso   1.00
C11    C     0.56750   0.96143   0.51850   0.00000  Uiso   1.00
C12    C     0.63719   0.91598   0.45874   0.00000  Uiso   1.00
O13    O     0.29147   0.09232   0.50497   0.00000  Uiso   1.00
O14    O     0.38292   0.11105   0.36416   0.00000  Uiso   1.00
C15    C     0.43218   0.03668   0.63110   0.00000  Uiso   1.00
H16    H     0.38600   0.06020   0.66870   0.00000  Uiso   1.00
C17    C     0.43250   0.03857   0.51850   0.00000  Uiso   1.00
C18    C     0.36281   0.08402   0.45874   0.00000  Uiso   1.00
O19    O     0.79147   0.59232   0.00497   0.00000  Uiso   1.00
O20    O     0.88292   0.61105   0.86416   0.00000  Uiso   1.00
C21    C     0.93218   0.53668   0.13110   0.00000  Uiso   1.00
H22    H     0.88600   0.56020   0.16870   0.00000  Uiso   1.00
C23    C     0.93250   0.53857   0.01850   0.00000  Uiso   1.00
C24    C     0.86281   0.58402   0.95874   0.00000  Uiso   1.00
O25    O     0.59232   0.70853   0.25497   0.00000  Uiso   1.00
O26    O     0.61105   0.61708   0.11416   0.00000  Uiso   1.00
C27    C     0.53668   0.56782   0.38110   0.00000  Uiso   1.00
H28    H     0.56020   0.61400   0.41870   0.00000  Uiso   1.00
C29    C     0.53857   0.56750   0.26850   0.00000  Uiso   1.00
C30    C     0.58402   0.63719   0.20874   0.00000  Uiso   1.00
O31    O     0.09232   0.20853   0.75497   0.00000  Uiso   1.00
O32    O     0.11105   0.11708   0.61416   0.00000  Uiso   1.00
C33    C     0.03668   0.06782   0.88110   0.00000  Uiso   1.00
H34    H     0.06020   0.11400   0.91870   0.00000  Uiso   1.00
C35    C     0.03857   0.06750   0.76850   0.00000  Uiso   1.00
C36    C     0.08402   0.13719   0.70874   0.00000  Uiso   1.00
O37    O     0.90768   0.79147   0.75497   0.00000  Uiso   1.00
O38    O     0.88895   0.88292   0.61416   0.00000  Uiso   1.00
C39    C     0.96332   0.93218   0.88110   0.00000  Uiso   1.00
H40    H     0.93980   0.88600   0.91870   0.00000  Uiso   1.00
C41    C     0.96143   0.93250   0.76850   0.00000  Uiso   1.00
C42    C     0.91598   0.86281   0.70874   0.00000  Uiso   1.00
O43    O     0.40768   0.29147   0.25497   0.00000  Uiso   1.00
O44    O     0.38895   0.38292   0.11416   0.00000  Uiso   1.00
C45    C     0.46332   0.43218   0.38110   0.00000  Uiso   1.00
H46    H     0.43980   0.38600   0.41870   0.00000  Uiso   1.00
C47    C     0.46143   0.43250   0.26850   0.00000  Uiso   1.00
C48    C     0.41598   0.36281   0.20874   0.00000  Uiso   1.00
O49    O     0.29147   0.40768   0.74503   0.00000  Uiso   1.00
O50    O     0.38292   0.38895   0.88584   0.00000  Uiso   1.00
C51    C     0.43218   0.46332   0.61890   0.00000  Uiso   1.00
H52    H     0.38600   0.43980   0.58130   0.00000  Uiso   1.00
C53    C     0.43250   0.46143   0.73150   0.00000  Uiso   1.00
C54    C     0.36281   0.41598   0.79126   0.00000  Uiso   1.00
O55    O     0.79147   0.90768   0.24503   0.00000  Uiso   1.00
O56    O     0.88292   0.88895   0.38584   0.00000  Uiso   1.00
C57    C     0.93218   0.96332   0.11890   0.00000  Uiso   1.00
H58    H     0.88600   0.93980   0.08130   0.00000  Uiso   1.00
C59    C     0.93250   0.96143   0.23150   0.00000  Uiso   1.00
C60    C     0.86281   0.91598   0.29126   0.00000  Uiso   1.00
O61    O     0.20853   0.09232   0.24503   0.00000  Uiso   1.00
O62    O     0.11708   0.11105   0.38584   0.00000  Uiso   1.00
C63    C     0.06782   0.03668   0.11890   0.00000  Uiso   1.00
H64    H     0.11400   0.06020   0.08130   0.00000  Uiso   1.00
C65    C     0.06750   0.03857   0.23150   0.00000  Uiso   1.00
C66    C     0.13719   0.08402   0.29126   0.00000  Uiso   1.00
O67    O     0.70853   0.59232   0.74503   0.00000  Uiso   1.00
O68    O     0.61708   0.61105   0.88584   0.00000  Uiso   1.00
C69    C     0.56782   0.53668   0.61890   0.00000  Uiso   1.00
H70    H     0.61400   0.56020   0.58130   0.00000  Uiso   1.00
C71    C     0.56750   0.53857   0.73150   0.00000  Uiso   1.00
C72    C     0.63719   0.58402   0.79126   0.00000  Uiso   1.00
O73    O     0.90768   0.70853   0.49503   0.00000  Uiso   1.00
O74    O     0.88895   0.61708   0.63584   0.00000  Uiso   1.00
C75    C     0.96332   0.56782   0.36890   0.00000  Uiso   1.00
H76    H     0.93980   0.61400   0.33130   0.00000  Uiso   1.00
C77    C     0.96143   0.56750   0.48150   0.00000  Uiso   1.00
C78    C     0.91598   0.63719   0.54126   0.00000  Uiso   1.00
O79    O     0.40768   0.20853   0.99503   0.00000  Uiso   1.00
O80    O     0.38895   0.11708   0.13584   0.00000  Uiso   1.00
C81    C     0.46332   0.06782   0.86890   0.00000  Uiso   1.00
H82    H     0.43980   0.11400   0.83130   0.00000  Uiso   1.00
C83    C     0.46143   0.06750   0.98150   0.00000  Uiso   1.00
C84    C     0.41598   0.13719   0.04126   0.00000  Uiso   1.00
O85    O     0.59232   0.79147   0.99503   0.00000  Uiso   1.00
O86    O     0.61105   0.88292   0.13584   0.00000  Uiso   1.00
C87    C     0.53668   0.93218   0.86890   0.00000  Uiso   1.00
H88    H     0.56020   0.88600   0.83130   0.00000  Uiso   1.00
C89    C     0.53857   0.93250   0.98150   0.00000  Uiso   1.00
C90    C     0.58402   0.86281   0.04126   0.00000  Uiso   1.00
O91    O     0.09232   0.29147   0.49503   0.00000  Uiso   1.00
O92    O     0.11105   0.38292   0.63584   0.00000  Uiso   1.00
C93    C     0.03668   0.43218   0.36890   0.00000  Uiso   1.00
H94    H     0.06020   0.38600   0.33130   0.00000  Uiso   1.00
C95    C     0.03857   0.43250   0.48150   0.00000  Uiso   1.00
C96    C     0.08402   0.36281   0.54126   0.00000  Uiso   1.00
In97   In    0.31203   0.31203   0.00000   0.00000  Uiso   1.00
In98   In    0.81203   0.81203   0.50000   0.00000  Uiso   1.00
In99   In    0.18797   0.18797   0.50000   0.00000  Uiso   1.00
In100  In    0.68797   0.81203   0.25000   0.00000  Uiso   1.00
In101  In    0.81203   0.68797   0.75000   0.00000  Uiso   1.00
In102  In    0.18797   0.31203   0.75000   0.00000  Uiso   1.00
In103  In    0.31203   0.18797   0.25000   0.00000  Uiso   1.00
In104  In    0.68797   0.68797   0.00000   0.00000  Uiso   1.00
O105   O     0.24900   0.25000   0.12500   0.00000  Uiso   1.00
H106   H     0.19260   0.25000   0.12500   0.00000  Uiso   1.00
O107   O     0.74900   0.75000   0.62500   0.00000  Uiso   1.00
H108   H     0.69260   0.75000   0.62500   0.00000  Uiso   1.00
O109   O     0.25100   0.25000   0.62500   0.00000  Uiso   1.00
H110   H     0.30740   0.25000   0.62500   0.00000  Uiso   1.00
O111   O     0.75100   0.75000   0.12500   0.00000  Uiso   1.00
H112   H     0.80740   0.75000   0.12500   0.00000  Uiso   1.00
O113   O     0.75000   0.74900   0.37500   0.00000  Uiso   1.00
H114   H     0.75000   0.69260   0.37500   0.00000  Uiso   1.00
O115   O     0.25000   0.24900   0.87500   0.00000  Uiso   1.00
H116   H     0.25000   0.19260   0.87500   0.00000  Uiso   1.00
O117   O     0.75000   0.75100   0.87500   0.00000  Uiso   1.00
H118   H     0.75000   0.80740   0.87500   0.00000  Uiso   1.00
O119   O     0.25000   0.25100   0.37500   0.00000  Uiso   1.00
H120   H     0.25000   0.30740   0.37500   0.00000  Uiso   1.00
C121   C     0.00000   0.50000   0.18870   0.00000  Uiso   1.00
C122   C     0.00000   0.50000   0.96140   0.00000  Uiso   1.00
H123   H     0.00000   0.50000   0.88590   0.00000  Uiso   1.00
C124   C     0.50000  -0.00000   0.68870   0.00000  Uiso   1.00
C125   C     0.50000  -0.00000   0.46140   0.00000  Uiso   1.00
H126   H     0.50000  -0.00000   0.38590   0.00000  Uiso   1.00
C127   C     0.50000   0.50000   0.43870   0.00000  Uiso   1.00
C128   C     0.50000   0.50000   0.21140   0.00000  Uiso   1.00
H129   H     0.50000   0.50000   0.13590   0.00000  Uiso   1.00
C130   C     0.00000   0.00000   0.93870   0.00000  Uiso   1.00
C131   C     0.00000   0.00000   0.71140   0.00000  Uiso   1.00
H132   H     0.00000   0.00000   0.63590   0.00000  Uiso   1.00
C133   C     0.50000   0.50000   0.56130   0.00000  Uiso   1.00
C134   C     0.50000   0.50000   0.78860   0.00000  Uiso   1.00
H135   H     0.50000   0.50000   0.86410   0.00000  Uiso   1.00
C136   C     0.00000  -0.00000   0.06130   0.00000  Uiso   1.00
C137   C     0.00000  -0.00000   0.28860   0.00000  Uiso   1.00
H138   H     0.00000  -0.00000   0.36410   0.00000  Uiso   1.00
C139   C     0.00000   0.50000   0.31130   0.00000  Uiso   1.00
C140   C     0.00000   0.50000   0.53860   0.00000  Uiso   1.00
H141   H     0.00000   0.50000   0.61410   0.00000  Uiso   1.00
C142   C     0.50000   0.00000   0.81130   0.00000  Uiso   1.00
C143   C     0.50000   0.00000   0.03860   0.00000  Uiso   1.00
H144   H     0.50000   0.00000   0.11410   0.00000  Uiso   1.00
loop_
_geom_bond_atom_site_label_1
_geom_bond_atom_site_label_2
_geom_bond_distance
_geom_bond_site_symmetry_2
_ccdc_geom_bond_type
O1     In97    2.195   .     S
O1     C6      1.255   1_554 S
O2     C6      1.278   .     S
O2     In102   2.152   .     S
C3     C121    1.394   .     S
C3     H4      0.930   .     S
C3     C5      1.388   .     S
C5     C122    1.400   1_554 S
C5     C6      1.490   1_554 S
C6     O1      1.255   1_556 S
C6     C5      1.490   1_556 S
O7     In98    2.195   .     S
O7     C12     1.255   .     S
O8     C12     1.278   .     S
O8     In100   2.152   .     S
C9     C124    1.394   1_565 S
C9     H10     0.930   .     S
C9     C11     1.388   .     S
C11    C125    1.400   1_565 S
C11    C12     1.490   .     S
O13    In99    2.195   .     S
O13    C18     1.255   .     S
O14    C18     1.278   .     S
O14    In103   2.152   .     S
C15    C124    1.394   .     S
C15    H16     0.930   .     S
C15    C17     1.388   .     S
C17    C125    1.400   .     S
C17    C18     1.490   .     S
O19    In104   2.195   .     S
O19    C24     1.255   1_554 S
O20    C24     1.278   .     S
O20    In101   2.152   .     S
C21    C121    1.394   1_655 S
C21    H22     0.930   .     S
C21    C23     1.388   .     S
C23    C122    1.400   1_654 S
C23    C24     1.490   1_554 S
C24    O19     1.255   1_556 S
C24    C23     1.490   1_556 S
O25    In100   2.195   .     S
O25    C30     1.255   .     S
O26    C30     1.278   .     S
O26    In104   2.152   .     S
C27    C127    1.394   .     S
C27    H28     0.930   .     S
C27    C29     1.388   .     S
C29    C128    1.400   .     S
C29    C30     1.490   .     S
O31    In102   2.195   .     S
O31    C36     1.255   .     S
O32    C36     1.278   .     S
O32    In99    2.152   .     S
C33    C130    1.394   .     S
C33    H34     0.930   .     S
C33    C35     1.388   .     S
C35    C131    1.400   .     S
C35    C36     1.490   .     S
O37    In101   2.195   .     S
O37    C42     1.255   .     S
O38    C42     1.278   .     S
O38    In98    2.152   .     S
C39    C130    1.394   1_665 S
C39    H40     0.930   .     S
C39    C41     1.388   .     S
C41    C131    1.400   1_665 S
C41    C42     1.490   .     S
O43    In103   2.195   .     S
O43    C48     1.255   .     S
O44    C48     1.278   .     S
O44    In97    2.152   .     S
C45    C127    1.394   .     S
C45    H46     0.930   .     S
C45    C47     1.388   .     S
C47    C128    1.400   .     S
C47    C48     1.490   .     S
O49    In102   2.195   .     S
O49    C54     1.255   .     S
O50    C54     1.278   .     S
O50    In97    2.152   1_556 S
C51    C133    1.394   .     S
C51    H52     0.930   .     S
C51    C53     1.388   .     S
C53    C134    1.400   .     S
C53    C54     1.490   .     S
O55    In100   2.195   .     S
O55    C60     1.255   .     S
O56    C60     1.278   .     S
O56    In98    2.152   .     S
C57    C136    1.394   1_665 S
C57    H58     0.930   .     S
C57    C59     1.388   .     S
C59    C137    1.400   1_665 S
C59    C60     1.490   .     S
O61    In103   2.195   .     S
O61    C66     1.255   .     S
O62    C66     1.278   .     S
O62    In99    2.152   .     S
C63    C136    1.394   .     S
C63    H64     0.930   .     S
C63    C65     1.388   .     S
C65    C137    1.400   .     S
C65    C66     1.490   .     S
O67    In101   2.195   .     S
O67    C72     1.255   .     S
O68    C72     1.278   .     S
O68    In104   2.152   1_556 S
C69    C133    1.394   .     S
C69    H70     0.930   .     S
C69    C71     1.388   .     S
C71    C134    1.400   .     S
C71    C72     1.490   .     S
O73    In98    2.195   .     S
O73    C78     1.255   .     S
O74    C78     1.278   .     S
O74    In101   2.152   .     S
C75    C139    1.394   1_655 S
C75    H76     0.930   .     S
C75    C77     1.388   .     S
C77    C140    1.400   1_655 S
C77    C78     1.490   .     S
O79    In97    2.195   1_556 S
O79    C84     1.255   1_556 S
O80    C84     1.278   .     S
O80    In103   2.152   .     S
C81    C142    1.394   .     S
C81    H82     0.930   .     S
C81    C83     1.388   .     S
C83    C143    1.400   1_556 S
C83    C84     1.490   1_556 S
C84    O79     1.255   1_554 S
C84    C83     1.490   1_554 S
O85    In104   2.195   1_556 S
O85    C90     1.255   1_556 S
O86    C90     1.278   .     S
O86    In100   2.152   .     S
C87    C142    1.394   1_565 S
C87    H88     0.930   .     S
C87    C89     1.388   .     S
C89    C143    1.400   1_566 S
C89    C90     1.490   1_556 S
C90    O85     1.255   1_554 S
C90    C89     1.490   1_554 S
O91    In99    2.195   .     S
O91    C96     1.255   .     S
O92    C96     1.278   .     S
O92    In102   2.152   .     S
C93    C139    1.394   .     S
C93    H94     0.930   .     S
C93    C95     1.388   .     S
C95    C140    1.400   .     S
C95    C96     1.490   .     S
In97   O79     2.195   1_554 S
In97   O105    2.066   .     S
In97   O115    2.066   1_554 S
In97   O50     2.152   1_554 S
In98   O113    2.066   .     S
In98   O107    2.066   .     S
In99   O109    2.066   .     S
In99   O119    2.066   .     S
In100  O113    2.066   .     S
In100  O111    2.066   .     S
In101  O117    2.066   .     S
In101  O107    2.066   .     S
In102  O109    2.066   .     S
In102  O115    2.066   .     S
In103  O105    2.066   .     S
In103  O119    2.066   .     S
In104  O85     2.195   1_554 S
In104  O117    2.066   1_554 S
In104  O111    2.066   .     S
In104  O68     2.152   1_554 S
O105   H106    0.878   .     S
O107   H108    0.878   .     S
O109   H110    0.878   .     S
O111   H112    0.878   .     S
O113   H114    0.878   .     S
O115   In97    2.066   1_556 S
O115   H116    0.878   .     S
O117   In104   2.066   1_556 S
O117   H118    0.878   .     S
O119   H120    0.878   .     S
C121   C21     1.394   1_455 S
C121   C139    1.510   .     S
C122   C5      1.400   1_556 S
C122   C23     1.400   1_456 S
C122   H123    0.930   .     S
C124   C9      1.394   1_545 S
C124   C142    1.510   .     S
C125   C11     1.400   1_545 S
C125   H126    0.930   .     S
C127   C133    1.510   .     S
C128   H129    0.930   .     S
C130   C39     1.394   1_445 S
C130   C136    1.510   1_556 S
C131   C41     1.400   1_445 S
C131   H132    0.930   .     S
C134   H135    0.930   .     S
C136   C57     1.394   1_445 S
C136   C130    1.510   1_554 S
C137   C59     1.400   1_445 S
C137   H138    0.930   .     S
C139   C75     1.394   1_455 S
C140   C77     1.400   1_455 S
C140   H141    0.930   .     S
C142   C87     1.394   1_545 S
C143   C89     1.400   1_544 S
C143   C83     1.400   1_554 S
C143   H144    0.930   .     S
