data_YEGSAE02_FSR
_audit_creation_date              2024-06-11
_audit_creation_method            'Materials Studio'
_symmetry_space_group_name_H-M    'P1'
_symmetry_Int_Tables_number       1
_symmetry_cell_setting            triclinic
loop_
_symmetry_equiv_pos_as_xyz
  x,y,z
_cell_length_a                    9.9880
_cell_length_b                    11.2490
_cell_length_c                    10.4250
_cell_angle_alpha                 90.0000
_cell_angle_beta                  100.2340
_cell_angle_gamma                 90.0000
loop_
_atom_site_label
_atom_site_type_symbol
_atom_site_fract_x
_atom_site_fract_y
_atom_site_fract_z
_atom_site_U_iso_or_equiv
_atom_site_adp_type
_atom_site_occupancy
Cu1    Cu    0.55207   0.48279   0.71347   0.02181  Uani   1.00
O2     O     0.61930   0.56372   0.90020   0.03470  Uani   1.00
H3     H     0.64230   0.51020   0.95750   0.04200  Uiso   1.00
H4     H     0.55990   0.60930   0.92310   0.04200  Uiso   1.00
O5     O     0.35430   0.47481   0.70960   0.02619  Uani   1.00
H6     H     0.32360   0.40550   0.68940   0.03100  Uiso   1.00
H7     H     0.34000   0.49570   0.78430   0.03100  Uiso   1.00
N8     N     0.53370   0.64260   0.62930   0.02202  Uani   1.00
N9     N     0.72950   0.49010   0.64530   0.02198  Uani   1.00
O10    O     0.77500   0.72992   0.34950   0.03349  Uani   1.00
O11    O     0.76540   0.91855   0.40780   0.03332  Uani   1.00
O12    O     0.90280   0.82349   0.72250   0.02800  Uani   1.00
O13    O     1.03980   0.78990   0.58020   0.03889  Uani   1.00
C14    C     0.64370   0.68000   0.58210   0.02042  Uani   1.00
C15    C     0.63640   0.77880   0.50100   0.02080  Uani   1.00
C16    C     0.51670   0.84500   0.48340   0.02800  Uani   1.00
H17    H     0.50990   0.91370   0.43310   0.03400  Uiso   1.00
C18    C     0.40990   0.81020   0.53890   0.03156  Uani   1.00
H19    H     0.33150   0.85630   0.52990   0.03800  Uiso   1.00
C20    C     0.41920   0.70680   0.60770   0.02801  Uani   1.00
H21    H     0.34390   0.68000   0.64060   0.03400  Uiso   1.00
C22    C     0.73740   0.81120   0.41460   0.02308  Uani   1.00
C23    C     0.76330   0.60280   0.61950   0.01821  Uani   1.00
C24    C     0.89900   0.63580   0.63080   0.02027  Uani   1.00
C25    C     0.99600   0.54560   0.64620   0.02472  Uani   1.00
H26    H     1.08710   0.56410   0.64830   0.03000  Uiso   1.00
C27    C     0.95770   0.42930   0.65820   0.02669  Uani   1.00
H28    H     1.02090   0.36810   0.66310   0.03200  Uiso   1.00
C29    C     0.82490   0.40590   0.66270   0.02636  Uani   1.00
H30    H     0.79980   0.32840   0.67840   0.03200  Uiso   1.00
C31    C     0.95100   0.76190   0.64120   0.02305  Uani   1.00
Cu32   Cu    0.94793   0.98279   0.78653   0.02181  Uani   1.00
O33    O     0.88070   0.06372   0.59980   0.03470  Uani   1.00
H34    H     0.85770   0.01020   0.54250   0.04200  Uiso   1.00
H35    H     0.94010   0.10930   0.57690   0.04200  Uiso   1.00
O36    O     1.14570   0.97481   0.79040   0.02619  Uani   1.00
H37    H     1.17640   0.90550   0.81060   0.03100  Uiso   1.00
H38    H     1.16000   0.99570   0.71570   0.03100  Uiso   1.00
N39    N     0.96630   0.14260   0.87070   0.02202  Uani   1.00
N40    N     0.77050   0.99010   0.85470   0.02198  Uani   1.00
O41    O     0.72500   0.22992   1.15050   0.03349  Uani   1.00
O42    O     0.73460   0.41855   1.09220   0.03332  Uani   1.00
O43    O     0.59720   0.32349   0.77750   0.02800  Uani   1.00
O44    O     0.46020   0.28990   0.91980   0.03889  Uani   1.00
C45    C     0.85630   0.18000   0.91790   0.02042  Uani   1.00
C46    C     0.86360   0.27880   0.99900   0.02080  Uani   1.00
C47    C     0.98330   0.34500   1.01660   0.02800  Uani   1.00
H48    H     0.99010   0.41370   1.06690   0.03400  Uiso   1.00
C49    C     1.09010   0.31020   0.96110   0.03156  Uani   1.00
H50    H     1.16850   0.35630   0.97010   0.03800  Uiso   1.00
C51    C     1.08080   0.20680   0.89230   0.02801  Uani   1.00
H52    H     1.15610   0.18000   0.85940   0.03400  Uiso   1.00
C53    C     0.76260   0.31120   1.08540   0.02308  Uani   1.00
C54    C     0.73670   0.10280   0.88050   0.01821  Uani   1.00
C55    C     0.60100   0.13580   0.86920   0.02027  Uani   1.00
C56    C     0.50400   0.04560   0.85380   0.02472  Uani   1.00
H57    H     0.41290   0.06410   0.85170   0.03000  Uiso   1.00
C58    C     0.54230   0.92930   0.84180   0.02669  Uani   1.00
H59    H     0.47910   0.86810   0.83690   0.03200  Uiso   1.00
C60    C     0.67510   0.90590   0.83730   0.02636  Uani   1.00
H61    H     0.70020   0.82840   0.82160   0.03200  Uiso   1.00
C62    C     0.54900   0.26190   0.85880   0.02305  Uani   1.00
Cu63   Cu    0.44793   0.51721   0.28653   0.02181  Uani   1.00
O64    O     0.38070   0.43628   0.09980   0.03470  Uani   1.00
H65    H     0.35770   0.48980   0.04250   0.04200  Uiso   1.00
H66    H     0.44010   0.39070   0.07690   0.04200  Uiso   1.00
O67    O     0.64570   0.52519   0.29040   0.02619  Uani   1.00
H68    H     0.67640   0.59450   0.31060   0.03100  Uiso   1.00
H69    H     0.66000   0.50430   0.21570   0.03100  Uiso   1.00
N70    N     0.46630   0.35740   0.37070   0.02202  Uani   1.00
N71    N     0.27050   0.50990   0.35470   0.02198  Uani   1.00
O72    O     0.22500   0.27008   0.65050   0.03349  Uani   1.00
O73    O     0.23460   0.08145   0.59220   0.03332  Uani   1.00
O74    O     0.09720   0.17651   0.27750   0.02800  Uani   1.00
O75    O    -0.03980   0.21010   0.41980   0.03889  Uani   1.00
C76    C     0.35630   0.32000   0.41790   0.02042  Uani   1.00
C77    C     0.36360   0.22120   0.49900   0.02080  Uani   1.00
C78    C     0.48330   0.15500   0.51660   0.02800  Uani   1.00
H79    H     0.49010   0.08630   0.56690   0.03400  Uiso   1.00
C80    C     0.59010   0.18980   0.46110   0.03156  Uani   1.00
H81    H     0.66850   0.14370   0.47010   0.03800  Uiso   1.00
C82    C     0.58080   0.29320   0.39230   0.02801  Uani   1.00
H83    H     0.65610   0.32000   0.35940   0.03400  Uiso   1.00
C84    C     0.26260   0.18880   0.58540   0.02308  Uani   1.00
C85    C     0.23670   0.39720   0.38050   0.01821  Uani   1.00
C86    C     0.10100   0.36420   0.36920   0.02027  Uani   1.00
C87    C     0.00400   0.45440   0.35380   0.02472  Uani   1.00
H88    H    -0.08710   0.43590   0.35170   0.03000  Uiso   1.00
C89    C     0.04230   0.57070   0.34180   0.02669  Uani   1.00
H90    H    -0.02090   0.63190   0.33690   0.03200  Uiso   1.00
C91    C     0.17510   0.59410   0.33730   0.02636  Uani   1.00
H92    H     0.20020   0.67160   0.32160   0.03200  Uiso   1.00
C93    C     0.04900   0.23810   0.35880   0.02305  Uani   1.00
Cu94   Cu    0.05207   0.01721   0.21347   0.02181  Uani   1.00
O95    O     0.11930   0.93628   0.40020   0.03470  Uani   1.00
H96    H     0.14230   0.98980   0.45750   0.04200  Uiso   1.00
H97    H     0.05990   0.89070   0.42310   0.04200  Uiso   1.00
O98    O    -0.14570   0.02519   0.20960   0.02619  Uani   1.00
H99    H    -0.17640   0.09450   0.18940   0.03100  Uiso   1.00
H100   H    -0.16000   0.00430   0.28430   0.03100  Uiso   1.00
N101   N     0.03370   0.85740   0.12930   0.02202  Uani   1.00
N102   N     0.22950   0.00990   0.14530   0.02198  Uani   1.00
O103   O     0.27500   0.77008  -0.15050   0.03349  Uani   1.00
O104   O     0.26540   0.58145  -0.09220   0.03332  Uani   1.00
O105   O     0.40280   0.67651   0.22250   0.02800  Uani   1.00
O106   O     0.53980   0.71010   0.08020   0.03889  Uani   1.00
C107   C     0.14370   0.82000   0.08210   0.02042  Uani   1.00
C108   C     0.13640   0.72120   0.00100   0.02080  Uani   1.00
C109   C     0.01670   0.65500  -0.01660   0.02800  Uani   1.00
H110   H     0.00990   0.58630  -0.06690   0.03400  Uiso   1.00
C111   C    -0.09010   0.68980   0.03890   0.03156  Uani   1.00
H112   H    -0.16850   0.64370   0.02990   0.03800  Uiso   1.00
C113   C    -0.08080   0.79320   0.10770   0.02801  Uani   1.00
H114   H    -0.15610   0.82000   0.14060   0.03400  Uiso   1.00
C115   C     0.23740   0.68880  -0.08540   0.02308  Uani   1.00
C116   C     0.26330   0.89720   0.11950   0.01821  Uani   1.00
C117   C     0.39900   0.86420   0.13080   0.02027  Uani   1.00
C118   C     0.49600   0.95440   0.14620   0.02472  Uani   1.00
H119   H     0.58710   0.93590   0.14830   0.03000  Uiso   1.00
C120   C     0.45770   0.07070   0.15820   0.02669  Uani   1.00
H121   H     0.52090   0.13190   0.16310   0.03200  Uiso   1.00
C122   C     0.32490   0.09410   0.16270   0.02636  Uani   1.00
H123   H     0.29980   0.17160   0.17840   0.03200  Uiso   1.00
C124   C     0.45100   0.73810   0.14120   0.02305  Uani   1.00
loop_
_atom_site_aniso_label
_atom_site_aniso_U_11
_atom_site_aniso_U_22
_atom_site_aniso_U_33
_atom_site_aniso_U_12
_atom_site_aniso_U_13
_atom_site_aniso_U_23
Cu1       0.02220   0.01690   0.02750  -0.00014   0.00757   0.00267
O2        0.04720   0.02710   0.02850   0.00520   0.00320  -0.00450
O5        0.02350   0.02360   0.03390  -0.00410   0.01170  -0.00400
N8        0.02300   0.01940   0.02520   0.00180   0.00850   0.00050
N9        0.02360   0.01810   0.02560   0.00160   0.00810   0.00190
O10       0.03700   0.03160   0.03590  -0.00370   0.01750  -0.00400
O11       0.04560   0.02490   0.03120  -0.00670   0.01160   0.00540
O12       0.03080   0.01760   0.03870  -0.00480   0.01460  -0.00790
O13       0.04330   0.03520   0.04390  -0.01050   0.02340  -0.00330
C14       0.02440   0.01890   0.01820   0.00040   0.00440  -0.00260
C15       0.02790   0.01570   0.01890   0.00050   0.00440   0.00010
C16       0.03630   0.02150   0.02660   0.00540   0.00670   0.00400
C18       0.02810   0.03010   0.03700   0.01290   0.00720   0.00480
C20       0.02430   0.02790   0.03290   0.00250   0.00800  -0.00120
C22       0.02660   0.02130   0.01940  -0.00040  -0.00120   0.00290
C23       0.02320   0.01640   0.01600   0.00150   0.00610  -0.00040
C24       0.02420   0.02040   0.01740   0.00160   0.00690  -0.00030
C25       0.02150   0.02910   0.02380   0.00420   0.00470   0.00110
C27       0.03020   0.02340   0.02780   0.00980   0.00880   0.00320
C29       0.03310   0.01800   0.03010   0.00400   0.01140   0.00310
C31       0.02160   0.02230   0.02490   0.00070   0.00320   0.00230
Cu32      0.02220   0.01690   0.02750   0.00014   0.00757  -0.00267
O33       0.04720   0.02710   0.02850  -0.00520   0.00320   0.00450
O36       0.02350   0.02360   0.03390   0.00410   0.01170   0.00400
N39       0.02300   0.01940   0.02520  -0.00180   0.00850  -0.00050
N40       0.02360   0.01810   0.02560  -0.00160   0.00810  -0.00190
O41       0.03700   0.03160   0.03590   0.00370   0.01750   0.00400
O42       0.04560   0.02490   0.03120   0.00670   0.01160  -0.00540
O43       0.03080   0.01760   0.03870   0.00480   0.01460   0.00790
O44       0.04330   0.03520   0.04390   0.01050   0.02340   0.00330
C45       0.02440   0.01890   0.01820  -0.00040   0.00440   0.00260
C46       0.02790   0.01570   0.01890  -0.00050   0.00440  -0.00010
C47       0.03630   0.02150   0.02660  -0.00540   0.00670  -0.00400
C49       0.02810   0.03010   0.03700  -0.01290   0.00720  -0.00480
C51       0.02430   0.02790   0.03290  -0.00250   0.00800   0.00120
C53       0.02660   0.02130   0.01940   0.00040  -0.00120  -0.00290
C54       0.02320   0.01640   0.01600  -0.00150   0.00610   0.00040
C55       0.02420   0.02040   0.01740  -0.00160   0.00690   0.00030
C56       0.02150   0.02910   0.02380  -0.00420   0.00470  -0.00110
C58       0.03020   0.02340   0.02780  -0.00980   0.00880  -0.00320
C60       0.03310   0.01800   0.03010  -0.00400   0.01140  -0.00310
C62       0.02160   0.02230   0.02490  -0.00070   0.00320  -0.00230
Cu63      0.02220   0.01690   0.02750  -0.00014   0.00757   0.00267
O64       0.04720   0.02710   0.02850   0.00520   0.00320  -0.00450
O67       0.02350   0.02360   0.03390  -0.00410   0.01170  -0.00400
N70       0.02300   0.01940   0.02520   0.00180   0.00850   0.00050
N71       0.02360   0.01810   0.02560   0.00160   0.00810   0.00190
O72       0.03700   0.03160   0.03590  -0.00370   0.01750  -0.00400
O73       0.04560   0.02490   0.03120  -0.00670   0.01160   0.00540
O74       0.03080   0.01760   0.03870  -0.00480   0.01460  -0.00790
O75       0.04330   0.03520   0.04390  -0.01050   0.02340  -0.00330
C76       0.02440   0.01890   0.01820   0.00040   0.00440  -0.00260
C77       0.02790   0.01570   0.01890   0.00050   0.00440   0.00010
C78       0.03630   0.02150   0.02660   0.00540   0.00670   0.00400
C80       0.02810   0.03010   0.03700   0.01290   0.00720   0.00480
C82       0.02430   0.02790   0.03290   0.00250   0.00800  -0.00120
C84       0.02660   0.02130   0.01940  -0.00040  -0.00120   0.00290
C85       0.02320   0.01640   0.01600   0.00150   0.00610  -0.00040
C86       0.02420   0.02040   0.01740   0.00160   0.00690  -0.00030
C87       0.02150   0.02910   0.02380   0.00420   0.00470   0.00110
C89       0.03020   0.02340   0.02780   0.00980   0.00880   0.00320
C91       0.03310   0.01800   0.03010   0.00400   0.01140   0.00310
C93       0.02160   0.02230   0.02490   0.00070   0.00320   0.00230
Cu94      0.02220   0.01690   0.02750   0.00014   0.00757  -0.00267
O95       0.04720   0.02710   0.02850  -0.00520   0.00320   0.00450
O98       0.02350   0.02360   0.03390   0.00410   0.01170   0.00400
N101      0.02300   0.01940   0.02520  -0.00180   0.00850  -0.00050
N102      0.02360   0.01810   0.02560  -0.00160   0.00810  -0.00190
O103      0.03700   0.03160   0.03590   0.00370   0.01750   0.00400
O104      0.04560   0.02490   0.03120   0.00670   0.01160  -0.00540
O105      0.03080   0.01760   0.03870   0.00480   0.01460   0.00790
O106      0.04330   0.03520   0.04390   0.01050   0.02340   0.00330
C107      0.02440   0.01890   0.01820  -0.00040   0.00440   0.00260
C108      0.02790   0.01570   0.01890  -0.00050   0.00440  -0.00010
C109      0.03630   0.02150   0.02660  -0.00540   0.00670  -0.00400
C111      0.02810   0.03010   0.03700  -0.01290   0.00720  -0.00480
C113      0.02430   0.02790   0.03290  -0.00250   0.00800   0.00120
C115      0.02660   0.02130   0.01940   0.00040  -0.00120  -0.00290
C116      0.02320   0.01640   0.01600  -0.00150   0.00610   0.00040
C117      0.02420   0.02040   0.01740  -0.00160   0.00690   0.00030
C118      0.02150   0.02910   0.02380  -0.00420   0.00470  -0.00110
C120      0.03020   0.02340   0.02780  -0.00980   0.00880  -0.00320
C122      0.03310   0.01800   0.03010  -0.00400   0.01140  -0.00310
C124      0.02160   0.02230   0.02490  -0.00070   0.00320  -0.00230
loop_
_geom_bond_atom_site_label_1
_geom_bond_atom_site_label_2
_geom_bond_distance
_geom_bond_site_symmetry_2
_ccdc_geom_bond_type
Cu1    O2      2.146   .     S
Cu1    O5      1.971   .     S
Cu1    N8      1.995   .     S
Cu1    N9      2.025   .     S
Cu1    O43     1.937   .     S
O2     H3      0.850   .     S
O2     H4      0.850   .     S
O5     H6      0.850   .     S
O5     H7      0.849   .     S
N8     C14     1.348   .     S
N8     C20     1.337   .     S
N9     C23     1.351   .     S
N9     C29     1.333   .     S
O10    C22     1.236   .     S
O11    C22     1.244   .     S
O12    C31     1.255   .     S
O12    Cu32    1.937   .     S
O13    C31     1.221   .     S
C14    C15     1.390   .     S
C14    C23     1.472   .     S
C15    C16     1.393   .     S
C15    C22     1.512   .     S
C16    H17     0.930   .     S
C16    C18     1.358   .     S
C18    H19     0.930   .     S
C18    C20     1.361   .     S
C20    H21     0.931   .     S
C23    C24     1.390   .     S
C24    C25     1.392   .     S
C24    C31     1.508   .     S
C25    H26     0.930   .     S
C25    C27     1.375   .     S
C27    H28     0.929   .     S
C27    C29     1.361   .     S
C29    H30     0.930   .     S
Cu32   O33     2.146   1_565 S
Cu32   O36     1.971   .     S
Cu32   N39     1.995   1_565 S
Cu32   N40     2.025   .     S
O33    Cu32    2.146   1_545 S
O33    H34     0.850   .     S
O33    H35     0.850   .     S
O36    H37     0.850   .     S
O36    H38     0.849   .     S
N39    Cu32    1.995   1_545 S
N39    C45     1.348   .     S
N39    C51     1.337   .     S
N40    C54     1.351   1_565 S
N40    C60     1.333   .     S
O41    C53     1.236   .     S
O42    C53     1.244   .     S
O43    C62     1.255   .     S
O44    C62     1.221   .     S
C45    C46     1.390   .     S
C45    C54     1.472   .     S
C46    C47     1.393   .     S
C46    C53     1.512   .     S
C47    H48     0.930   .     S
C47    C49     1.358   .     S
C49    H50     0.930   .     S
C49    C51     1.361   .     S
C51    H52     0.931   .     S
C54    N40     1.351   1_545 S
C54    C55     1.390   .     S
C55    C56     1.392   .     S
C55    C62     1.508   .     S
C56    H57     0.930   .     S
C56    C58     1.375   1_545 S
C58    C56     1.375   1_565 S
C58    H59     0.929   .     S
C58    C60     1.361   .     S
C60    H61     0.930   .     S
Cu63   O64     2.146   .     S
Cu63   O67     1.971   .     S
Cu63   N70     1.995   .     S
Cu63   N71     2.025   .     S
Cu63   O105    1.937   .     S
O64    H65     0.850   .     S
O64    H66     0.850   .     S
O67    H68     0.850   .     S
O67    H69     0.849   .     S
N70    C76     1.348   .     S
N70    C82     1.337   .     S
N71    C85     1.351   .     S
N71    C91     1.333   .     S
O72    C84     1.236   .     S
O73    C84     1.244   .     S
O74    C93     1.255   .     S
O74    Cu94    1.937   .     S
O75    C93     1.221   .     S
C76    C77     1.390   .     S
C76    C85     1.472   .     S
C77    C78     1.393   .     S
C77    C84     1.512   .     S
C78    H79     0.930   .     S
C78    C80     1.358   .     S
C80    H81     0.930   .     S
C80    C82     1.361   .     S
C82    H83     0.931   .     S
C85    C86     1.390   .     S
C86    C87     1.392   .     S
C86    C93     1.508   .     S
C87    H88     0.930   .     S
C87    C89     1.375   .     S
C89    H90     0.929   .     S
C89    C91     1.361   .     S
C91    H92     0.930   .     S
Cu94   O95     2.146   1_545 S
Cu94   O98     1.971   .     S
Cu94   N101    1.995   1_545 S
Cu94   N102    2.025   .     S
O95    Cu94    2.146   1_565 S
O95    H96     0.850   .     S
O95    H97     0.850   .     S
O98    H99     0.850   .     S
O98    H100    0.849   .     S
N101   Cu94    1.995   1_565 S
N101   C107    1.348   .     S
N101   C113    1.337   .     S
N102   C116    1.351   1_545 S
N102   C122    1.333   .     S
O103   C115    1.236   .     S
O104   C115    1.244   .     S
O105   C124    1.255   .     S
O106   C124    1.221   .     S
C107   C108    1.390   .     S
C107   C116    1.472   .     S
C108   C109    1.393   .     S
C108   C115    1.512   .     S
C109   H110    0.930   .     S
C109   C111    1.358   .     S
C111   H112    0.930   .     S
C111   C113    1.361   .     S
C113   H114    0.931   .     S
C116   N102    1.351   1_565 S
C116   C117    1.390   .     S
C117   C118    1.392   .     S
C117   C124    1.508   .     S
C118   H119    0.930   .     S
C118   C120    1.375   1_565 S
C120   C118    1.375   1_545 S
C120   H121    0.929   .     S
C120   C122    1.361   .     S
C122   H123    0.930   .     S
