data_YEQSOG_FSR
_audit_creation_date              2024-06-11
_audit_creation_method            'Materials Studio'
_symmetry_space_group_name_H-M    'P1'
_symmetry_Int_Tables_number       1
_symmetry_cell_setting            triclinic
loop_
_symmetry_equiv_pos_as_xyz
  x,y,z
_cell_length_a                    9.1991
_cell_length_b                    13.7667
_cell_length_c                    10.6459
_cell_angle_alpha                 90.0000
_cell_angle_beta                  111.8820
_cell_angle_gamma                 90.0000
loop_
_atom_site_label
_atom_site_type_symbol
_atom_site_fract_x
_atom_site_fract_y
_atom_site_fract_z
_atom_site_U_iso_or_equiv
_atom_site_adp_type
_atom_site_occupancy
Ni1    Ni    0.01339   0.72870  -0.00187   0.00000  Uiso   1.00
O2     O     0.13670   0.65040   0.17090   0.00000  Uiso   1.00
O3     O     0.88680   0.80900  -0.16900   0.00000  Uiso   1.00
H4     H     0.88690   0.86620  -0.14740   0.00000  Uiso   1.00
O5     O     0.10280   0.85620   0.11110   0.00000  Uiso   1.00
H6     H     0.19780   0.85080   0.15090   0.00000  Uiso   1.00
O7     O     0.11850   0.49590   0.10730   0.00000  Uiso   1.00
O8     O     0.91960   0.60070  -0.10670   0.00000  Uiso   1.00
N9     N     0.65500   0.48990   0.18470   0.00000  Uiso   1.00
O10    O     0.67280   0.52040   0.63410   0.00000  Uiso   1.00
N11    N     0.82400   0.73710   0.06110   0.00000  Uiso   1.00
N12    N     0.80460   0.23070   0.07560   0.00000  Uiso   1.00
O13    O     0.87850   0.50840   0.52150   0.00000  Uiso   1.00
H14    H     0.82100   0.50870   0.56470   0.00000  Uiso   1.00
C15    C     0.51500   0.58400   0.29270   0.00000  Uiso   1.00
H16    H     0.48270   0.64460   0.31070   0.00000  Uiso   1.00
C17    C     0.77790   0.66010   0.11360   0.00000  Uiso   1.00
H18    H     0.82940   0.60120   0.11840   0.00000  Uiso   1.00
C19    C     0.47040   0.50090   0.34170   0.00000  Uiso   1.00
C20    C     0.65580   0.66440   0.16140   0.00000  Uiso   1.00
C21    C     0.60880   0.57630   0.21630   0.00000  Uiso   1.00
C22    C     0.20430   0.52970   0.34080   0.00000  Uiso   1.00
C23    C     0.14990   0.56200   0.19390   0.00000  Uiso   1.00
C24    C     0.61010   0.40940   0.22960   0.00000  Uiso   1.00
C25    C     0.35980   0.50410   0.41320   0.00000  Uiso   1.00
O26    O     0.60210   0.39130   0.72000   0.00000  Uiso   1.00
O27    O     0.05680   0.46230   0.71790   0.00000  Uiso   1.00
C28    C     0.74800   0.82160   0.05280   0.00000  Uiso   1.00
H29    H     0.77900   0.87540   0.01610   0.00000  Uiso   1.00
C30    C     0.58290   0.75330   0.15560   0.00000  Uiso   1.00
H31    H     0.50530   0.76030   0.19130   0.00000  Uiso   1.00
C32    C     0.13730   0.49410   0.53430   0.00000  Uiso   1.00
C33    C     0.62660   0.83130   0.09650   0.00000  Uiso   1.00
H34    H     0.57380   0.89020   0.08630   0.00000  Uiso   1.00
C35    C     0.52060   0.41180   0.31130   0.00000  Uiso   1.00
H36    H     0.49520   0.35450   0.34480   0.00000  Uiso   1.00
C37    C     0.09230   0.52450   0.40040   0.00000  Uiso   1.00
H38    H     0.98870   0.54120   0.35110   0.00000  Uiso   1.00
C39    C     0.40440   0.47650   0.55050   0.00000  Uiso   1.00
C40    C     0.65500   0.31530   0.18520   0.00000  Uiso   1.00
C41    C     0.73260   0.14780   0.08480   0.00000  Uiso   1.00
H42    H     0.75900   0.09090   0.05130   0.00000  Uiso   1.00
C43    C     0.29090   0.46960   0.60640   0.00000  Uiso   1.00
H44    H     0.31930   0.44770   0.69500   0.00000  Uiso   1.00
C45    C     0.76600   0.31170   0.12500   0.00000  Uiso   1.00
H46    H     0.81620   0.36910   0.11880   0.00000  Uiso   1.00
C47    C     0.58350   0.22800   0.19510   0.00000  Uiso   1.00
H48    H     0.51120   0.22610   0.23710   0.00000  Uiso   1.00
C49    C     0.01960   0.48600   0.60100   0.00000  Uiso   1.00
C50    C     0.62060   0.14400   0.14220   0.00000  Uiso   1.00
H51    H     0.57080   0.08580   0.14520   0.00000  Uiso   1.00
C52    C     0.57540   0.45960   0.64130   0.00000  Uiso   1.00
H53    H     0.94470   0.54150  -0.07940   0.00000  Uiso   1.00
H54    H     0.83700   0.79070  -0.24230   0.00000  Uiso   1.00
H55    H     0.84790   0.60170  -0.19020   0.00000  Uiso   1.00
H56    H     0.07260   0.89040   0.16870   0.00000  Uiso   1.00
Ni57   Ni    0.98661   0.22870   0.00187   0.00000  Uiso   1.00
O58    O     0.86330   0.15040  -0.17090   0.00000  Uiso   1.00
O59    O     0.11320   0.30900   0.16900   0.00000  Uiso   1.00
H60    H     0.11310   0.36620   0.14740   0.00000  Uiso   1.00
O61    O     0.89720   0.35620  -0.11110   0.00000  Uiso   1.00
H62    H     0.80220   0.35080  -0.15090   0.00000  Uiso   1.00
O63    O     0.88150   0.99590  -0.10730   0.00000  Uiso   1.00
O64    O     0.08040   0.10070   0.10670   0.00000  Uiso   1.00
N65    N     0.34500   0.98990  -0.18470   0.00000  Uiso   1.00
O66    O     0.32720   0.02040  -0.63410   0.00000  Uiso   1.00
N67    N     0.17600   0.23710  -0.06110   0.00000  Uiso   1.00
N68    N     0.19540   0.73070  -0.07560   0.00000  Uiso   1.00
O69    O     0.12150   0.00840  -0.52150   0.00000  Uiso   1.00
H70    H     0.17900   0.00870  -0.56470   0.00000  Uiso   1.00
C71    C     0.48500   0.08400  -0.29270   0.00000  Uiso   1.00
H72    H     0.51730   0.14460  -0.31070   0.00000  Uiso   1.00
C73    C     0.22210   0.16010  -0.11360   0.00000  Uiso   1.00
H74    H     0.17060   0.10120  -0.11840   0.00000  Uiso   1.00
C75    C     0.52960   0.00090  -0.34170   0.00000  Uiso   1.00
C76    C     0.34420   0.16440  -0.16140   0.00000  Uiso   1.00
C77    C     0.39120   0.07630  -0.21630   0.00000  Uiso   1.00
C78    C     0.79570   0.02970  -0.34080   0.00000  Uiso   1.00
C79    C     0.85010   0.06200  -0.19390   0.00000  Uiso   1.00
C80    C     0.38990   0.90940  -0.22960   0.00000  Uiso   1.00
C81    C     0.64020   0.00410  -0.41320   0.00000  Uiso   1.00
O82    O     0.39790   0.89130  -0.72000   0.00000  Uiso   1.00
O83    O     0.94320   0.96230  -0.71790   0.00000  Uiso   1.00
C84    C     0.25200   0.32160  -0.05280   0.00000  Uiso   1.00
H85    H     0.22100   0.37540  -0.01610   0.00000  Uiso   1.00
C86    C     0.41710   0.25330  -0.15560   0.00000  Uiso   1.00
H87    H     0.49470   0.26030  -0.19130   0.00000  Uiso   1.00
C88    C     0.86270   0.99410  -0.53430   0.00000  Uiso   1.00
C89    C     0.37340   0.33130  -0.09650   0.00000  Uiso   1.00
H90    H     0.42620   0.39020  -0.08630   0.00000  Uiso   1.00
C91    C     0.47940   0.91180  -0.31130   0.00000  Uiso   1.00
H92    H     0.50480   0.85450  -0.34480   0.00000  Uiso   1.00
C93    C     0.90770   0.02450  -0.40040   0.00000  Uiso   1.00
H94    H     0.01130   0.04120  -0.35110   0.00000  Uiso   1.00
C95    C     0.59560   0.97650  -0.55050   0.00000  Uiso   1.00
C96    C     0.34500   0.81530  -0.18520   0.00000  Uiso   1.00
C97    C     0.26740   0.64780  -0.08480   0.00000  Uiso   1.00
H98    H     0.24100   0.59090  -0.05130   0.00000  Uiso   1.00
C99    C     0.70910   0.96960  -0.60640   0.00000  Uiso   1.00
H100   H     0.68070   0.94770  -0.69500   0.00000  Uiso   1.00
C101   C     0.23400   0.81170  -0.12500   0.00000  Uiso   1.00
H102   H     0.18380   0.86910  -0.11880   0.00000  Uiso   1.00
C103   C     0.41650   0.72800  -0.19510   0.00000  Uiso   1.00
H104   H     0.48880   0.72610  -0.23710   0.00000  Uiso   1.00
C105   C     0.98040   0.98600  -0.60100   0.00000  Uiso   1.00
C106   C     0.37940   0.64400  -0.14220   0.00000  Uiso   1.00
H107   H     0.42920   0.58580  -0.14520   0.00000  Uiso   1.00
C108   C     0.42460   0.95960  -0.64130   0.00000  Uiso   1.00
H109   H     0.05530   0.04150   0.07940   0.00000  Uiso   1.00
H110   H     0.16300   0.29070   0.24230   0.00000  Uiso   1.00
H111   H     0.15210   0.10170   0.19020   0.00000  Uiso   1.00
H112   H     0.92740   0.39040  -0.16870   0.00000  Uiso   1.00
loop_
_geom_bond_atom_site_label_1
_geom_bond_atom_site_label_2
_geom_bond_distance
_geom_bond_site_symmetry_2
_ccdc_geom_bond_type
Ni1    O2      2.068   .     S
Ni1    O3      2.049   1_455 S
Ni1    O5      2.113   .     S
Ni1    O8      2.092   1_455 S
Ni1    N11     2.090   1_455 S
Ni1    N68     2.098   .     S
O2     C23     1.238   .     S
O3     Ni1     2.049   1_655 S
O3     H4      0.820   .     S
O3     H54     0.785   .     S
O5     H6      0.820   .     S
O5     H56     0.895   .     S
O7     C23     1.250   .     S
O8     Ni1     2.092   1_655 S
O8     H53     0.867   .     S
O8     H55     0.888   .     S
N9     C21     1.347   .     S
N9     C24     1.332   .     S
O10    C52     1.249   .     S
N11    C17     1.339   .     S
N11    C28     1.343   .     S
N11    Ni1     2.090   1_655 S
N12    C41     1.341   .     S
N12    C45     1.336   .     S
N12    Ni57    2.098   .     S
O13    H14     0.820   .     S
O13    C49     1.295   1_655 S
C15    H16     0.929   .     S
C15    C19     1.382   .     S
C15    C21     1.393   .     S
C17    H18     0.931   .     S
C17    C20     1.396   .     S
C19    C25     1.481   .     S
C19    C35     1.391   .     S
C20    C30     1.386   .     S
C20    C21     1.479   .     S
C22    C23     1.520   .     S
C22    C37     1.399   .     S
C22    C25     1.394   .     S
C24    C40     1.489   .     S
C24    C35     1.403   .     S
C25    C39     1.415   .     S
O26    C52     1.222   .     S
O27    C49     1.206   .     S
C28    H29     0.930   .     S
C28    C33     1.367   .     S
C30    H31     0.930   .     S
C30    C33     1.378   .     S
C32    C37     1.392   .     S
C32    C43     1.375   .     S
C32    C49     1.504   .     S
C33    H34     0.931   .     S
C35    H36     0.931   .     S
C37    H38     0.929   1_455 S
H38    C37     0.929   1_655 S
C39    C52     1.526   .     S
C39    C43     1.384   .     S
C40    C47     1.393   .     S
C40    C45     1.394   .     S
C41    H42     0.930   .     S
C41    C50     1.381   .     S
C43    H44     0.930   .     S
C45    H46     0.930   .     S
C47    H48     0.930   .     S
C47    C50     1.384   .     S
C49    O13     1.295   1_455 S
C50    H51     0.929   .     S
Ni57   O58     2.068   .     S
Ni57   O59     2.049   1_655 S
Ni57   O61     2.113   .     S
Ni57   O64     2.092   1_655 S
Ni57   N67     2.090   1_655 S
O58    C79     1.238   .     S
O59    Ni57    2.049   1_455 S
O59    H60     0.820   .     S
O59    H110    0.785   .     S
O61    H62     0.820   .     S
O61    H112    0.895   .     S
O63    C79     1.250   1_565 S
O64    Ni57    2.092   1_455 S
O64    H109    0.867   .     S
O64    H111    0.888   .     S
N65    C77     1.347   1_565 S
N65    C80     1.332   .     S
O66    C108    1.249   1_545 S
N67    C73     1.339   .     S
N67    C84     1.343   .     S
N67    Ni57    2.090   1_455 S
N68    C97     1.341   .     S
N68    C101    1.336   .     S
O69    H70     0.820   .     S
O69    C105    1.295   1_445 S
C71    H72     0.929   .     S
C71    C75     1.382   .     S
C71    C77     1.393   .     S
C73    H74     0.931   .     S
C73    C76     1.396   .     S
C75    C81     1.481   .     S
C75    C91     1.391   1_545 S
C76    C86     1.386   .     S
C76    C77     1.479   .     S
C77    N65     1.347   1_545 S
C78    C79     1.520   .     S
C78    C93     1.399   .     S
C78    C81     1.394   .     S
C79    O63     1.250   1_545 S
C80    C96     1.489   .     S
C80    C91     1.403   .     S
C81    C95     1.415   1_545 S
O82    C108    1.222   .     S
O83    C105    1.206   .     S
C84    H85     0.930   .     S
C84    C89     1.367   .     S
C86    H87     0.930   .     S
C86    C89     1.378   .     S
C88    C93     1.392   1_565 S
C88    C99     1.375   .     S
C88    C105    1.504   .     S
C89    H90     0.931   .     S
C91    C75     1.391   1_565 S
C91    H92     0.931   .     S
C93    C88     1.392   1_545 S
C93    H94     0.929   1_655 S
H94    C93     0.929   1_455 S
C95    C81     1.415   1_565 S
C95    C108    1.526   .     S
C95    C99     1.384   .     S
C96    C103    1.393   .     S
C96    C101    1.394   .     S
C97    H98     0.930   .     S
C97    C106    1.381   .     S
C99    H100    0.930   .     S
C101   H102    0.930   .     S
C103   H104    0.930   .     S
C103   C106    1.384   .     S
C105   O69     1.295   1_665 S
C106   H107    0.929   .     S
C108   O66     1.249   1_565 S
