data_YEQSEW_FSR
_audit_creation_date              2024-06-11
_audit_creation_method            'Materials Studio'
_symmetry_space_group_name_H-M    'P1'
_symmetry_Int_Tables_number       1
_symmetry_cell_setting            triclinic
loop_
_symmetry_equiv_pos_as_xyz
  x,y,z
_cell_length_a                    19.4802
_cell_length_b                    13.7611
_cell_length_c                    9.3361
_cell_angle_alpha                 90.0000
_cell_angle_beta                  90.0000
_cell_angle_gamma                 90.0000
loop_
_atom_site_label
_atom_site_type_symbol
_atom_site_fract_x
_atom_site_fract_y
_atom_site_fract_z
_atom_site_U_iso_or_equiv
_atom_site_adp_type
_atom_site_occupancy
O1     O     0.77548   0.18770   0.78290   0.00000  Uiso   1.00
O2     O     0.65211   0.36520   0.09440   0.00000  Uiso   1.00
O3     O     0.79705   0.37487   0.94270   0.00000  Uiso   1.00
S4     S     0.70390   0.20078   0.73582   0.00000  Uiso   1.00
Mn5    Mn    0.79701   0.06875   0.93094   0.00000  Uiso   1.00
Mn6    Mn    0.69258   0.43243   0.89075   0.00000  Uiso   1.00
O7     O     0.69981   0.18868   0.57990   0.00000  Uiso   1.00
O8     O     0.68144   0.29900   0.77100   0.00000  Uiso   1.00
O9     O     0.72224   0.56080   0.00070   0.00000  Uiso   1.00
O10    O     0.72070   0.93911   0.31260   0.00000  Uiso   1.00
O11    O     0.75063   0.99835   0.10220   0.00000  Uiso   1.00
O12    O     0.00723   0.68490   0.12250   0.00000  Uiso   1.00
N13    N     0.41097   0.93840   0.92460   0.00000  Uiso   1.00
N14    N     0.53314   0.74110   0.14660   0.00000  Uiso   1.00
C15    C     0.76014   0.56630   0.10870   0.00000  Uiso   1.00
C16    C     0.79168   0.66400   0.13920   0.00000  Uiso   1.00
C17    C     0.75279   0.74990   0.15030   0.00000  Uiso   1.00
C18    C     0.78754   0.83830   0.16300   0.00000  Uiso   1.00
C19    C     0.75020   0.93270   0.19330   0.00000  Uiso   1.00
C20    C     0.85882   0.84210   0.15450   0.00000  Uiso   1.00
H21    H     0.88110   0.90190   0.15600   0.00000  Uiso   1.00
C22    C     0.89674   0.75690   0.14390   0.00000  Uiso   1.00
C23    C     0.86295   0.66790   0.13840   0.00000  Uiso   1.00
H24    H     0.88820   0.61070   0.13420   0.00000  Uiso   1.00
C25    C     0.97347   0.75800   0.13450   0.00000  Uiso   1.00
C26    C     0.67659   0.74740   0.15060   0.00000  Uiso   1.00
C27    C     0.63880   0.81090   0.06460   0.00000  Uiso   1.00
H28    H     0.66110   0.85440   0.00430   0.00000  Uiso   1.00
C29    C     0.56715   0.80860   0.07000   0.00000  Uiso   1.00
C30    C     0.56983   0.67670   0.22370   0.00000  Uiso   1.00
C31    C     0.64108   0.68060   0.23340   0.00000  Uiso   1.00
H32    H     0.66450   0.63890   0.29460   0.00000  Uiso   1.00
C33    C     0.52989   0.59830   0.29490   0.00000  Uiso   1.00
C34    C     0.45886   0.60640   0.30320   0.00000  Uiso   1.00
H35    H     0.43820   0.66220   0.26730   0.00000  Uiso   1.00
N36    N     0.41892   0.53740   0.36040   0.00000  Uiso   1.00
C37    C     0.44850   0.45770   0.41400   0.00000  Uiso   1.00
H38    H     0.42080   0.40960   0.45370   0.00000  Uiso   1.00
O39    O     0.77646   0.49540   0.18580   0.00000  Uiso   1.00
C40    C     0.51890   0.44420   0.41230   0.00000  Uiso   1.00
H41    H     0.53840   0.38870   0.45200   0.00000  Uiso   1.00
O42    O     0.99861   0.84560   0.13690   0.00000  Uiso   1.00
C43    C     0.55960   0.51520   0.35040   0.00000  Uiso   1.00
H44    H     0.60700   0.50690   0.34620   0.00000  Uiso   1.00
C45    C     0.52461   0.88120   0.99240   0.00000  Uiso   1.00
C46    C     0.45330   0.87270   0.98930   0.00000  Uiso   1.00
H47    H     0.43340   0.81920   0.03390   0.00000  Uiso   1.00
C48    C     0.44070   0.01440   0.85930   0.00000  Uiso   1.00
H49    H     0.41280   0.05970   0.81380   0.00000  Uiso   1.00
C50    C     0.51040   0.02830   0.85670   0.00000  Uiso   1.00
H51    H     0.52900   0.08180   0.80990   0.00000  Uiso   1.00
C52    C     0.55285   0.96180   0.92440   0.00000  Uiso   1.00
H53    H     0.60010   0.97110   0.92440   0.00000  Uiso   1.00
O54    O     0.66290   0.12800   0.80750   0.00000  Uiso   1.00
H55    H     0.80360   0.30760   0.92590   0.00000  Uiso   1.00
H56    H     0.62400   0.31120   0.12080   0.00000  Uiso   1.00
H57    H     0.03980   0.85560   0.10940   0.00000  Uiso   1.00
H58    H     0.80780   0.38630   0.03860   0.00000  Uiso   1.00
H59    H     0.61700   0.41620   0.10900   0.00000  Uiso   1.00
O60    O     0.22452   0.81230   0.28290   0.00000  Uiso   1.00
O61    O     0.34789   0.63480   0.59440   0.00000  Uiso   1.00
O62    O     0.20295   0.62513   0.44270   0.00000  Uiso   1.00
S63    S     0.29610   0.79922   0.23582   0.00000  Uiso   1.00
Mn64   Mn    0.20299   0.93125   0.43094   0.00000  Uiso   1.00
Mn65   Mn    0.30742   0.56757   0.39075   0.00000  Uiso   1.00
O66    O     0.30019   0.81132   0.07990   0.00000  Uiso   1.00
O67    O     0.31856   0.70100   0.27100   0.00000  Uiso   1.00
O68    O     0.27776   0.43920   0.50070   0.00000  Uiso   1.00
O69    O     0.27930   0.06089   0.81260   0.00000  Uiso   1.00
O70    O     0.24937   0.00165   0.60220   0.00000  Uiso   1.00
O71    O     0.99277   0.31510   0.62250   0.00000  Uiso   1.00
N72    N     0.58903   0.06160   0.42460   0.00000  Uiso   1.00
N73    N     0.46686   0.25890   0.64660   0.00000  Uiso   1.00
C74    C     0.23986   0.43370   0.60870   0.00000  Uiso   1.00
C75    C     0.20832   0.33600   0.63920   0.00000  Uiso   1.00
C76    C     0.24721   0.25010   0.65030   0.00000  Uiso   1.00
C77    C     0.21246   0.16170   0.66300   0.00000  Uiso   1.00
C78    C     0.24980   0.06730   0.69330   0.00000  Uiso   1.00
C79    C     0.14118   0.15790   0.65450   0.00000  Uiso   1.00
H80    H     0.11890   0.09810   0.65600   0.00000  Uiso   1.00
C81    C     0.10326   0.24310   0.64390   0.00000  Uiso   1.00
C82    C     0.13705   0.33210   0.63840   0.00000  Uiso   1.00
H83    H     0.11180   0.38930   0.63420   0.00000  Uiso   1.00
C84    C     0.02653   0.24200   0.63450   0.00000  Uiso   1.00
C85    C     0.32341   0.25260   0.65060   0.00000  Uiso   1.00
C86    C     0.36120   0.18910   0.56460   0.00000  Uiso   1.00
H87    H     0.33890   0.14560   0.50430   0.00000  Uiso   1.00
C88    C     0.43285   0.19140   0.57000   0.00000  Uiso   1.00
C89    C     0.43017   0.32330   0.72370   0.00000  Uiso   1.00
C90    C     0.35892   0.31940   0.73340   0.00000  Uiso   1.00
H91    H     0.33550   0.36110   0.79460   0.00000  Uiso   1.00
C92    C     0.47011   0.40170   0.79490   0.00000  Uiso   1.00
C93    C     0.54114   0.39360   0.80320   0.00000  Uiso   1.00
H94    H     0.56180   0.33780   0.76730   0.00000  Uiso   1.00
N95    N     0.58108   0.46260   0.86040   0.00000  Uiso   1.00
C96    C     0.55150   0.54230   0.91400   0.00000  Uiso   1.00
H97    H     0.57920   0.59040   0.95370   0.00000  Uiso   1.00
O98    O     0.22354   0.50460   0.68580   0.00000  Uiso   1.00
C99    C     0.48110   0.55580   0.91230   0.00000  Uiso   1.00
H100   H     0.46160   0.61130   0.95200   0.00000  Uiso   1.00
O101   O     0.00139   0.15440   0.63690   0.00000  Uiso   1.00
C102   C     0.44040   0.48480   0.85040   0.00000  Uiso   1.00
H103   H     0.39300   0.49310   0.84620   0.00000  Uiso   1.00
C104   C     0.47539   0.11880   0.49240   0.00000  Uiso   1.00
C105   C     0.54670   0.12730   0.48930   0.00000  Uiso   1.00
H106   H     0.56660   0.18080   0.53390   0.00000  Uiso   1.00
C107   C     0.55930   0.98560   0.35930   0.00000  Uiso   1.00
H108   H     0.58720   0.94030   0.31380   0.00000  Uiso   1.00
C109   C     0.48960   0.97170   0.35670   0.00000  Uiso   1.00
H110   H     0.47100   0.91820   0.30990   0.00000  Uiso   1.00
C111   C     0.44715   0.03820   0.42440   0.00000  Uiso   1.00
H112   H     0.39990   0.02890   0.42440   0.00000  Uiso   1.00
O113   O     0.33710   0.87200   0.30750   0.00000  Uiso   1.00
H114   H     0.19640   0.69240   0.42590   0.00000  Uiso   1.00
H115   H     0.37600   0.68880   0.62080   0.00000  Uiso   1.00
H116   H     0.96020   0.14440   0.60940   0.00000  Uiso   1.00
H117   H     0.19220   0.61370   0.53860   0.00000  Uiso   1.00
H118   H     0.38300   0.58380   0.60900   0.00000  Uiso   1.00
O119   O     0.27548   0.81230   0.78290   0.00000  Uiso   1.00
O120   O     0.15211   0.63480   0.09440   0.00000  Uiso   1.00
O121   O     0.29705   0.62513   0.94270   0.00000  Uiso   1.00
S122   S     0.20390   0.79922   0.73582   0.00000  Uiso   1.00
Mn123  Mn    0.29701   0.93125   0.93094   0.00000  Uiso   1.00
Mn124  Mn    0.19258   0.56757   0.89075   0.00000  Uiso   1.00
O125   O     0.19981   0.81132   0.57990   0.00000  Uiso   1.00
O126   O     0.18144   0.70100   0.77100   0.00000  Uiso   1.00
O127   O     0.22224   0.43920   0.00070   0.00000  Uiso   1.00
O128   O     0.22070   0.06089   0.31260   0.00000  Uiso   1.00
O129   O     0.25063   0.00165   0.10220   0.00000  Uiso   1.00
O130   O     0.50723   0.31510   0.12250   0.00000  Uiso   1.00
N131   N     0.91097   0.06160   0.92460   0.00000  Uiso   1.00
N132   N     0.03314   0.25890   0.14660   0.00000  Uiso   1.00
C133   C     0.26014   0.43370   0.10870   0.00000  Uiso   1.00
C134   C     0.29168   0.33600   0.13920   0.00000  Uiso   1.00
C135   C     0.25279   0.25010   0.15030   0.00000  Uiso   1.00
C136   C     0.28754   0.16170   0.16300   0.00000  Uiso   1.00
C137   C     0.25020   0.06730   0.19330   0.00000  Uiso   1.00
C138   C     0.35882   0.15790   0.15450   0.00000  Uiso   1.00
H139   H     0.38110   0.09810   0.15600   0.00000  Uiso   1.00
C140   C     0.39674   0.24310   0.14390   0.00000  Uiso   1.00
C141   C     0.36295   0.33210   0.13840   0.00000  Uiso   1.00
H142   H     0.38820   0.38930   0.13420   0.00000  Uiso   1.00
C143   C     0.47347   0.24200   0.13450   0.00000  Uiso   1.00
C144   C     0.17659   0.25260   0.15060   0.00000  Uiso   1.00
C145   C     0.13880   0.18910   0.06460   0.00000  Uiso   1.00
H146   H     0.16110   0.14560   0.00430   0.00000  Uiso   1.00
C147   C     0.06715   0.19140   0.07000   0.00000  Uiso   1.00
C148   C     0.06983   0.32330   0.22370   0.00000  Uiso   1.00
C149   C     0.14108   0.31940   0.23340   0.00000  Uiso   1.00
H150   H     0.16450   0.36110   0.29460   0.00000  Uiso   1.00
C151   C     0.02989   0.40170   0.29490   0.00000  Uiso   1.00
C152   C     0.95886   0.39360   0.30320   0.00000  Uiso   1.00
H153   H     0.93820   0.33780   0.26730   0.00000  Uiso   1.00
N154   N     0.91892   0.46260   0.36040   0.00000  Uiso   1.00
C155   C     0.94850   0.54230   0.41400   0.00000  Uiso   1.00
H156   H     0.92080   0.59040   0.45370   0.00000  Uiso   1.00
O157   O     0.27646   0.50460   0.18580   0.00000  Uiso   1.00
C158   C     0.01890   0.55580   0.41230   0.00000  Uiso   1.00
H159   H     0.03840   0.61130   0.45200   0.00000  Uiso   1.00
O160   O     0.49861   0.15440   0.13690   0.00000  Uiso   1.00
C161   C     0.05960   0.48480   0.35040   0.00000  Uiso   1.00
H162   H     0.10700   0.49310   0.34620   0.00000  Uiso   1.00
C163   C     0.02461   0.11880   0.99240   0.00000  Uiso   1.00
C164   C     0.95330   0.12730   0.98930   0.00000  Uiso   1.00
H165   H     0.93340   0.18080   0.03390   0.00000  Uiso   1.00
C166   C     0.94070   0.98560   0.85930   0.00000  Uiso   1.00
H167   H     0.91280   0.94030   0.81380   0.00000  Uiso   1.00
C168   C     0.01040   0.97170   0.85670   0.00000  Uiso   1.00
H169   H     0.02900   0.91820   0.80990   0.00000  Uiso   1.00
C170   C     0.05285   0.03820   0.92440   0.00000  Uiso   1.00
H171   H     0.10010   0.02890   0.92440   0.00000  Uiso   1.00
O172   O     0.16290   0.87200   0.80750   0.00000  Uiso   1.00
H173   H     0.30360   0.69240   0.92590   0.00000  Uiso   1.00
H174   H     0.12400   0.68880   0.12080   0.00000  Uiso   1.00
H175   H     0.53980   0.14440   0.10940   0.00000  Uiso   1.00
H176   H     0.30780   0.61370   0.03860   0.00000  Uiso   1.00
H177   H     0.11700   0.58380   0.10900   0.00000  Uiso   1.00
O178   O     0.72452   0.18770   0.28290   0.00000  Uiso   1.00
O179   O     0.84789   0.36520   0.59440   0.00000  Uiso   1.00
O180   O     0.70295   0.37487   0.44270   0.00000  Uiso   1.00
S181   S     0.79610   0.20078   0.23582   0.00000  Uiso   1.00
Mn182  Mn    0.70299   0.06875   0.43094   0.00000  Uiso   1.00
Mn183  Mn    0.80742   0.43243   0.39075   0.00000  Uiso   1.00
O184   O     0.80019   0.18868   0.07990   0.00000  Uiso   1.00
O185   O     0.81856   0.29900   0.27100   0.00000  Uiso   1.00
O186   O     0.77776   0.56080   0.50070   0.00000  Uiso   1.00
O187   O     0.77930   0.93911   0.81260   0.00000  Uiso   1.00
O188   O     0.74937   0.99835   0.60220   0.00000  Uiso   1.00
O189   O     0.49277   0.68490   0.62250   0.00000  Uiso   1.00
N190   N     0.08903   0.93840   0.42460   0.00000  Uiso   1.00
N191   N     0.96686   0.74110   0.64660   0.00000  Uiso   1.00
C192   C     0.73986   0.56630   0.60870   0.00000  Uiso   1.00
C193   C     0.70832   0.66400   0.63920   0.00000  Uiso   1.00
C194   C     0.74721   0.74990   0.65030   0.00000  Uiso   1.00
C195   C     0.71246   0.83830   0.66300   0.00000  Uiso   1.00
C196   C     0.74980   0.93270   0.69330   0.00000  Uiso   1.00
C197   C     0.64118   0.84210   0.65450   0.00000  Uiso   1.00
H198   H     0.61890   0.90190   0.65600   0.00000  Uiso   1.00
C199   C     0.60326   0.75690   0.64390   0.00000  Uiso   1.00
C200   C     0.63705   0.66790   0.63840   0.00000  Uiso   1.00
H201   H     0.61180   0.61070   0.63420   0.00000  Uiso   1.00
C202   C     0.52653   0.75800   0.63450   0.00000  Uiso   1.00
C203   C     0.82341   0.74740   0.65060   0.00000  Uiso   1.00
C204   C     0.86120   0.81090   0.56460   0.00000  Uiso   1.00
H205   H     0.83890   0.85440   0.50430   0.00000  Uiso   1.00
C206   C     0.93285   0.80860   0.57000   0.00000  Uiso   1.00
C207   C     0.93017   0.67670   0.72370   0.00000  Uiso   1.00
C208   C     0.85892   0.68060   0.73340   0.00000  Uiso   1.00
H209   H     0.83550   0.63890   0.79460   0.00000  Uiso   1.00
C210   C     0.97011   0.59830   0.79490   0.00000  Uiso   1.00
C211   C     0.04114   0.60640   0.80320   0.00000  Uiso   1.00
H212   H     0.06180   0.66220   0.76730   0.00000  Uiso   1.00
N213   N     0.08108   0.53740   0.86040   0.00000  Uiso   1.00
C214   C     0.05150   0.45770   0.91400   0.00000  Uiso   1.00
H215   H     0.07920   0.40960   0.95370   0.00000  Uiso   1.00
O216   O     0.72354   0.49540   0.68580   0.00000  Uiso   1.00
C217   C     0.98110   0.44420   0.91230   0.00000  Uiso   1.00
H218   H     0.96160   0.38870   0.95200   0.00000  Uiso   1.00
O219   O     0.50139   0.84560   0.63690   0.00000  Uiso   1.00
C220   C     0.94040   0.51520   0.85040   0.00000  Uiso   1.00
H221   H     0.89300   0.50690   0.84620   0.00000  Uiso   1.00
C222   C     0.97539   0.88120   0.49240   0.00000  Uiso   1.00
C223   C     0.04670   0.87270   0.48930   0.00000  Uiso   1.00
H224   H     0.06660   0.81920   0.53390   0.00000  Uiso   1.00
C225   C     0.05930   0.01440   0.35930   0.00000  Uiso   1.00
H226   H     0.08720   0.05970   0.31380   0.00000  Uiso   1.00
C227   C     0.98960   0.02830   0.35670   0.00000  Uiso   1.00
H228   H     0.97100   0.08180   0.30990   0.00000  Uiso   1.00
C229   C     0.94715   0.96180   0.42440   0.00000  Uiso   1.00
H230   H     0.89990   0.97110   0.42440   0.00000  Uiso   1.00
O231   O     0.83710   0.12800   0.30750   0.00000  Uiso   1.00
H232   H     0.69640   0.30760   0.42590   0.00000  Uiso   1.00
H233   H     0.87600   0.31120   0.62080   0.00000  Uiso   1.00
H234   H     0.46020   0.85560   0.60940   0.00000  Uiso   1.00
H235   H     0.69220   0.38630   0.53860   0.00000  Uiso   1.00
H236   H     0.88300   0.41620   0.60900   0.00000  Uiso   1.00
loop_
_geom_bond_atom_site_label_1
_geom_bond_atom_site_label_2
_geom_bond_distance
_geom_bond_site_symmetry_2
_ccdc_geom_bond_type
O1     S4      1.473   .     S
O1     Mn5     2.183   .     S
O2     Mn6     2.257   1_554 S
O2     H56     0.955   .     S
O2     H59     0.989   .     S
O3     Mn6     2.237   .     S
O3     H55     0.948   .     S
O3     H58     0.933   1_556 S
S4     O7      1.467   .     S
S4     O8      1.458   .     S
S4     O54     1.445   .     S
Mn5    O11     2.076   1_546 S
Mn5    O184    2.159   1_556 S
Mn5    O187    2.127   1_545 S
Mn5    N131    2.223   .     S
Mn6    O2      2.257   1_556 S
Mn6    O8      2.161   .     S
Mn6    O9      2.123   1_556 S
Mn6    N95     2.229   .     S
Mn6    O216    2.185   .     S
O7     Mn182   2.159   .     S
O9     Mn6     2.123   1_554 S
O9     C15     1.252   .     S
O10    C19     1.256   .     S
O10    Mn182   2.127   1_565 S
O11    Mn5     2.076   1_564 S
O11    C19     1.241   .     S
O12    C25     1.207   1_455 S
N13    C46     1.365   .     S
N13    C48     1.342   1_565 S
N13    Mn123   2.223   .     S
N14    C29     1.347   .     S
N14    C30     1.347   .     S
C15    C16     1.505   .     S
C15    O39     1.253   .     S
C16    C17     1.408   .     S
C16    C23     1.389   .     S
C17    C18     1.397   .     S
C17    C26     1.485   .     S
C18    C19     1.515   .     S
C18    C20     1.392   .     S
C20    H21     0.930   .     S
C20    C22     1.389   .     S
C22    C25     1.497   .     S
C22    C23     1.391   .     S
C23    H24     0.929   .     S
C25    O12     1.207   1_655 S
C25    O42     1.301   .     S
C26    C27     1.396   .     S
C26    C31     1.386   .     S
C27    H28     0.930   .     S
C27    C29     1.397   .     S
C29    C45     1.487   1_554 S
C30    C33     1.487   .     S
C30    C31     1.392   .     S
C31    H32     0.929   .     S
C33    C34     1.390   .     S
C33    C43     1.382   .     S
C34    H35     0.929   .     S
C34    N36     1.339   .     S
N36    C37     1.336   .     S
N36    Mn65    2.229   .     S
C37    H38     0.931   .     S
C37    C40     1.384   .     S
O39    Mn183   2.185   .     S
C40    H41     0.930   .     S
C40    C43     1.385   .     S
O42    H57     0.854   1_655 S
C43    H44     0.931   .     S
C45    C29     1.487   1_556 S
C45    C46     1.394   .     S
C45    C52     1.391   .     S
C46    H47     0.930   1_556 S
H47    C46     0.930   1_554 S
C48    N13     1.342   1_545 S
C48    H49     0.930   .     S
C48    C50     1.371   .     S
C50    H51     0.930   .     S
C50    C52     1.386   1_545 S
C52    H53     0.929   .     S
C52    C50     1.386   1_565 S
H57    O42     0.854   1_455 S
H58    O3      0.933   1_554 S
O60    S63     1.473   .     S
O60    Mn64    2.183   .     S
O61    Mn65    2.257   .     S
O61    H115    0.955   .     S
O61    H118    0.989   .     S
O62    Mn65    2.237   .     S
O62    H114    0.948   .     S
O62    H117    0.933   .     S
S63    O66     1.467   .     S
S63    O67     1.458   .     S
S63    O113    1.445   .     S
Mn64   O70     2.076   1_565 S
Mn64   O125    2.159   .     S
Mn64   O128    2.127   1_565 S
Mn64   N190    2.223   .     S
Mn65   O67     2.161   .     S
Mn65   O68     2.123   .     S
Mn65   O157    2.185   .     S
O66    Mn123   2.159   1_554 S
O68    C74     1.252   .     S
O69    C78     1.256   .     S
O69    Mn123   2.127   1_545 S
O70    Mn64    2.076   1_545 S
O70    C78     1.241   .     S
O71    C84     1.207   1_655 S
N72    C105    1.365   .     S
N72    C107    1.342   1_545 S
N72    Mn182   2.223   .     S
N73    C88     1.347   .     S
N73    C89     1.347   .     S
C74    C75     1.505   .     S
C74    O98     1.253   .     S
C75    C76     1.408   .     S
C75    C82     1.389   .     S
C76    C77     1.397   .     S
C76    C85     1.485   .     S
C77    C78     1.515   .     S
C77    C79     1.392   .     S
C79    H80     0.930   .     S
C79    C81     1.389   .     S
C81    C84     1.497   .     S
C81    C82     1.391   .     S
C82    H83     0.929   .     S
C84    O71     1.207   1_455 S
C84    O101    1.301   .     S
C85    C86     1.396   .     S
C85    C90     1.386   .     S
C86    H87     0.930   .     S
C86    C88     1.397   .     S
C88    C104    1.487   .     S
C89    C92     1.487   .     S
C89    C90     1.392   .     S
C90    H91     0.929   .     S
C92    C93     1.390   .     S
C92    C102    1.382   .     S
C93    H94     0.929   .     S
C93    N95     1.339   .     S
N95    C96     1.336   .     S
C96    H97     0.931   .     S
C96    C99     1.384   .     S
O98    Mn124   2.185   .     S
C99    H100    0.930   .     S
C99    C102    1.385   .     S
O101   H116    0.854   1_455 S
C102   H103    0.931   .     S
C104   C105    1.394   .     S
C104   C111    1.391   .     S
C105   H106    0.930   .     S
C107   N72     1.342   1_565 S
C107   H108    0.930   .     S
C107   C109    1.371   .     S
C109   H110    0.930   .     S
C109   C111    1.386   1_565 S
C111   H112    0.929   .     S
C111   C109    1.386   1_545 S
H116   O101    0.854   1_655 S
O119   S122    1.473   .     S
O119   Mn123   2.183   .     S
O120   Mn124   2.257   1_554 S
O120   H174    0.955   .     S
O120   H177    0.989   .     S
O121   Mn124   2.237   .     S
O121   H173    0.948   .     S
O121   H176    0.933   1_556 S
S122   O125    1.467   .     S
S122   O126    1.458   .     S
S122   O172    1.445   .     S
Mn123  O129    2.076   1_566 S
Mn123  O66     2.159   1_556 S
Mn123  O69     2.127   1_565 S
Mn124  O120    2.257   1_556 S
Mn124  O126    2.161   .     S
Mn124  O127    2.123   1_556 S
Mn124  N213    2.229   .     S
O127   Mn124   2.123   1_554 S
O127   C133    1.252   .     S
O128   C137    1.256   .     S
O128   Mn64    2.127   1_545 S
O129   Mn123   2.076   1_544 S
O129   C137    1.241   .     S
O130   C143    1.207   .     S
N131   C164    1.365   .     S
N131   C166    1.342   1_545 S
N132   C147    1.347   .     S
N132   C148    1.347   .     S
C133   C134    1.505   .     S
C133   O157    1.253   .     S
C134   C135    1.408   .     S
C134   C141    1.389   .     S
C135   C136    1.397   .     S
C135   C144    1.485   .     S
C136   C137    1.515   .     S
C136   C138    1.392   .     S
C138   H139    0.930   .     S
C138   C140    1.389   .     S
C140   C143    1.497   .     S
C140   C141    1.391   .     S
C141   H142    0.929   .     S
C143   O160    1.301   .     S
C144   C145    1.396   .     S
C144   C149    1.386   .     S
C145   H146    0.930   .     S
C145   C147    1.397   .     S
C147   C163    1.487   1_554 S
C148   C151    1.487   .     S
C148   C149    1.392   .     S
C149   H150    0.929   .     S
C151   C152    1.390   1_455 S
C151   C161    1.382   .     S
C152   C151    1.390   1_655 S
C152   H153    0.929   .     S
C152   N154    1.339   .     S
N154   C155    1.336   .     S
N154   Mn183   2.229   .     S
C155   H156    0.931   .     S
C155   C158    1.384   1_655 S
C158   C155    1.384   1_455 S
C158   H159    0.930   .     S
C158   C161    1.385   .     S
O160   H175    0.854   .     S
C161   H162    0.931   .     S
C163   C147    1.487   1_556 S
C163   C164    1.394   1_455 S
C163   C170    1.391   .     S
C164   C163    1.394   1_655 S
C164   H165    0.930   1_556 S
H165   C164    0.930   1_554 S
C166   N131    1.342   1_565 S
C166   H167    0.930   .     S
C166   C168    1.371   1_655 S
C168   C166    1.371   1_455 S
C168   H169    0.930   .     S
C168   C170    1.386   1_565 S
C170   H171    0.929   .     S
C170   C168    1.386   1_545 S
H176   O121    0.933   1_554 S
O178   S181    1.473   .     S
O178   Mn182   2.183   .     S
O179   Mn183   2.257   .     S
O179   H233    0.955   .     S
O179   H236    0.989   .     S
O180   Mn183   2.237   .     S
O180   H232    0.948   .     S
O180   H235    0.933   .     S
S181   O184    1.467   .     S
S181   O185    1.458   .     S
S181   O231    1.445   .     S
Mn182  O188    2.076   1_545 S
Mn182  O10     2.127   1_545 S
Mn183  O185    2.161   .     S
Mn183  O186    2.123   .     S
O184   Mn5     2.159   1_554 S
O186   C192    1.252   .     S
O187   C196    1.256   .     S
O187   Mn5     2.127   1_565 S
O188   Mn182   2.076   1_565 S
O188   C196    1.241   .     S
O189   C202    1.207   .     S
N190   C223    1.365   .     S
N190   C225    1.342   1_565 S
N191   C206    1.347   .     S
N191   C207    1.347   .     S
C192   C193    1.505   .     S
C192   O216    1.253   .     S
C193   C194    1.408   .     S
C193   C200    1.389   .     S
C194   C195    1.397   .     S
C194   C203    1.485   .     S
C195   C196    1.515   .     S
C195   C197    1.392   .     S
C197   H198    0.930   .     S
C197   C199    1.389   .     S
C199   C202    1.497   .     S
C199   C200    1.391   .     S
C200   H201    0.929   .     S
C202   O219    1.301   .     S
C203   C204    1.396   .     S
C203   C208    1.386   .     S
C204   H205    0.930   .     S
C204   C206    1.397   .     S
C206   C222    1.487   .     S
C207   C210    1.487   .     S
C207   C208    1.392   .     S
C208   H209    0.929   .     S
C210   C211    1.390   1_655 S
C210   C220    1.382   .     S
C211   C210    1.390   1_455 S
C211   H212    0.929   .     S
C211   N213    1.339   .     S
N213   C214    1.336   .     S
C214   H215    0.931   .     S
C214   C217    1.384   1_455 S
C217   C214    1.384   1_655 S
C217   H218    0.930   .     S
C217   C220    1.385   .     S
O219   H234    0.854   .     S
C220   H221    0.931   .     S
C222   C223    1.394   1_655 S
C222   C229    1.391   .     S
C223   C222    1.394   1_455 S
C223   H224    0.930   .     S
C225   N190    1.342   1_545 S
C225   H226    0.930   .     S
C225   C227    1.371   1_455 S
C227   C225    1.371   1_655 S
C227   H228    0.930   .     S
C227   C229    1.386   1_545 S
C229   H230    0.929   .     S
C229   C227    1.386   1_565 S
