data_YEQSIA_FSR
_audit_creation_date              2024-06-11
_audit_creation_method            'Materials Studio'
_symmetry_space_group_name_H-M    'P1'
_symmetry_Int_Tables_number       1
_symmetry_cell_setting            triclinic
loop_
_symmetry_equiv_pos_as_xyz
  x,y,z
_cell_length_a                    9.2155
_cell_length_b                    13.8358
_cell_length_c                    10.7050
_cell_angle_alpha                 90.0000
_cell_angle_beta                  112.0680
_cell_angle_gamma                 90.0000
loop_
_atom_site_label
_atom_site_type_symbol
_atom_site_fract_x
_atom_site_fract_y
_atom_site_fract_z
_atom_site_U_iso_or_equiv
_atom_site_adp_type
_atom_site_occupancy
Co1    Co    0.51269   0.72602   0.49725   0.00000  Uiso   1.00
O2     O     0.63550   0.64610   0.66900   0.00000  Uiso   1.00
O3     O     0.60210   0.85500   0.61100   0.00000  Uiso   1.00
H4     H     0.54560   0.87060   0.65130   0.00000  Uiso   1.00
O5     O     0.62100   0.49170   0.60810   0.00000  Uiso   1.00
O6     O     0.38250   0.80670   0.32900   0.00000  Uiso   1.00
H7     H     0.37840   0.86300   0.35120   0.00000  Uiso   1.00
O8     O     0.17340   0.52110   1.13290   0.00000  Uiso   1.00
N9     N     0.15280   0.48830   0.68550   0.00000  Uiso   1.00
O10    O     0.37820   0.50730   1.02050   0.00000  Uiso   1.00
H11    H     0.32150   0.50740   1.06400   0.00000  Uiso   1.00
O12    O     0.41640   0.59560   0.39130   0.00000  Uiso   1.00
H13    H     0.39970   0.60260   0.31100   0.00000  Uiso   1.00
N14    N     0.32040   0.73520   0.56250   0.00000  Uiso   1.00
N15    N     0.30180   0.22930   0.57790   0.00000  Uiso   1.00
C16    C     0.96950   0.49870   0.84160   0.00000  Uiso   1.00
C17    C     0.10920   0.40790   0.73190   0.00000  Uiso   1.00
C18    C     0.10770   0.57420   0.71730   0.00000  Uiso   1.00
C19    C     0.27410   0.65750   0.61380   0.00000  Uiso   1.00
H20    H     0.32310   0.59850   0.61530   0.00000  Uiso   1.00
C21    C     0.70340   0.52740   0.84100   0.00000  Uiso   1.00
C22    C     0.85940   0.50290   0.91430   0.00000  Uiso   1.00
O23    O     0.55870   0.46530   1.21770   0.00000  Uiso   1.00
C24    C     0.24530   0.81880   0.55500   0.00000  Uiso   1.00
H25    H     0.27520   0.87210   0.51730   0.00000  Uiso   1.00
C26    C     0.01470   0.58200   0.79500   0.00000  Uiso   1.00
H27    H     0.98400   0.64230   0.81470   0.00000  Uiso   1.00
C28    C     0.15570   0.66220   0.66460   0.00000  Uiso   1.00
C29    C     0.90440   0.47720   1.05060   0.00000  Uiso   1.00
C30    C     0.63700   0.49340   1.03320   0.00000  Uiso   1.00
C31    C     0.64960   0.55760   0.69350   0.00000  Uiso   1.00
C32    C     0.59240   0.52320   0.90060   0.00000  Uiso   1.00
H33    H     0.48890   0.54020   0.85150   0.00000  Uiso   1.00
O34    O     0.10370   0.39420   1.22260   0.00000  Uiso   1.00
C35    C     0.01930   0.41030   0.81170   0.00000  Uiso   1.00
H36    H     0.99320   0.35330   0.84430   0.00000  Uiso   1.00
C37    C     0.79180   0.47000   1.10670   0.00000  Uiso   1.00
H38    H     0.82070   0.44920   1.19530   0.00000  Uiso   1.00
C39    C     0.15270   0.31380   0.68640   0.00000  Uiso   1.00
C40    C     0.52120   0.48710   1.10010   0.00000  Uiso   1.00
C41    C     0.22880   0.14690   0.58510   0.00000  Uiso   1.00
H42    H     0.25420   0.09030   0.55110   0.00000  Uiso   1.00
C43    C     0.12560   0.82880   0.60080   0.00000  Uiso   1.00
H44    H     0.07430   0.88760   0.59290   0.00000  Uiso   1.00
C45    C     0.26430   0.30950   0.62830   0.00000  Uiso   1.00
H46    H     0.31630   0.36630   0.62430   0.00000  Uiso   1.00
C47    C     0.08240   0.75060   0.65840   0.00000  Uiso   1.00
H48    H     0.00440   0.75700   0.69320   0.00000  Uiso   1.00
C49    C     0.07460   0.46090   1.14160   0.00000  Uiso   1.00
C50    C     0.07890   0.22830   0.69380   0.00000  Uiso   1.00
H51    H     0.00450   0.22750   0.73320   0.00000  Uiso   1.00
C52    C     0.11560   0.14380   0.64260   0.00000  Uiso   1.00
H53    H     0.06570   0.08610   0.64650   0.00000  Uiso   1.00
H54    H     0.33770   0.75770   0.29950   0.00000  Uiso   1.00
H55    H     0.69210   0.85930   0.65250   0.00000  Uiso   1.00
H56    H     0.46010   0.53510   0.43250   0.00000  Uiso   1.00
Co57   Co    0.48731   0.22602   0.50275   0.00000  Uiso   1.00
O58    O     0.36450   0.14610   0.33100   0.00000  Uiso   1.00
O59    O     0.39790   0.35500   0.38900   0.00000  Uiso   1.00
H60    H     0.45440   0.37060   0.34870   0.00000  Uiso   1.00
O61    O     0.37900   0.99170   0.39190   0.00000  Uiso   1.00
O62    O     0.61750   0.30670   0.67100   0.00000  Uiso   1.00
H63    H     0.62160   0.36300   0.64880   0.00000  Uiso   1.00
O64    O     0.82660   0.02110  -0.13290   0.00000  Uiso   1.00
N65    N     0.84720   0.98830   0.31450   0.00000  Uiso   1.00
O66    O     0.62180   0.00730  -0.02050   0.00000  Uiso   1.00
H67    H     0.67850   0.00740  -0.06400   0.00000  Uiso   1.00
O68    O     0.58360   0.09560   0.60870   0.00000  Uiso   1.00
H69    H     0.60030   0.10260   0.68900   0.00000  Uiso   1.00
N70    N     0.67960   0.23520   0.43750   0.00000  Uiso   1.00
N71    N     0.69820   0.72930   0.42210   0.00000  Uiso   1.00
C72    C     0.03050   0.99870   0.15840   0.00000  Uiso   1.00
C73    C     0.89080   0.90790   0.26810   0.00000  Uiso   1.00
C74    C     0.89230   0.07420   0.28270   0.00000  Uiso   1.00
C75    C     0.72590   0.15750   0.38620   0.00000  Uiso   1.00
H76    H     0.67690   0.09850   0.38470   0.00000  Uiso   1.00
C77    C     0.29660   0.02740   0.15900   0.00000  Uiso   1.00
C78    C     0.14060   0.00290   0.08570   0.00000  Uiso   1.00
O79    O     0.44130   0.96530  -0.21770   0.00000  Uiso   1.00
C80    C     0.75470   0.31880   0.44500   0.00000  Uiso   1.00
H81    H     0.72480   0.37210   0.48270   0.00000  Uiso   1.00
C82    C     0.98530   0.08200   0.20500   0.00000  Uiso   1.00
H83    H     0.01600   0.14230   0.18530   0.00000  Uiso   1.00
C84    C     0.84430   0.16220   0.33540   0.00000  Uiso   1.00
C85    C     0.09560   0.97720  -0.05060   0.00000  Uiso   1.00
C86    C     0.36300   0.99340  -0.03320   0.00000  Uiso   1.00
C87    C     0.35040   0.05760   0.30650   0.00000  Uiso   1.00
C88    C     0.40760   0.02320   0.09940   0.00000  Uiso   1.00
H89    H     0.51110   0.04020   0.14850   0.00000  Uiso   1.00
O90    O     0.89630   0.89420  -0.22260   0.00000  Uiso   1.00
C91    C     0.98070   0.91030   0.18830   0.00000  Uiso   1.00
H92    H     0.00680   0.85330   0.15570   0.00000  Uiso   1.00
C93    C     0.20820   0.97000  -0.10670   0.00000  Uiso   1.00
H94    H     0.17930   0.94920  -0.19530   0.00000  Uiso   1.00
C95    C     0.84730   0.81380   0.31360   0.00000  Uiso   1.00
C96    C     0.47880   0.98710  -0.10010   0.00000  Uiso   1.00
C97    C     0.77120   0.64690   0.41490   0.00000  Uiso   1.00
H98    H     0.74580   0.59030   0.44890   0.00000  Uiso   1.00
C99    C     0.87440   0.32880   0.39920   0.00000  Uiso   1.00
H100   H     0.92570   0.38760   0.40710   0.00000  Uiso   1.00
C101   C     0.73570   0.80950   0.37170   0.00000  Uiso   1.00
H102   H     0.68370   0.86630   0.37570   0.00000  Uiso   1.00
C103   C     0.91760   0.25060   0.34160   0.00000  Uiso   1.00
H104   H     0.99560   0.25700   0.30680   0.00000  Uiso   1.00
C105   C     0.92540   0.96090  -0.14160   0.00000  Uiso   1.00
C106   C     0.92110   0.72830   0.30620   0.00000  Uiso   1.00
H107   H     0.99550   0.72750   0.26680   0.00000  Uiso   1.00
C108   C     0.88440   0.64380   0.35740   0.00000  Uiso   1.00
H109   H     0.93430   0.58610   0.35350   0.00000  Uiso   1.00
H110   H     0.66230   0.25770   0.70050   0.00000  Uiso   1.00
H111   H     0.30790   0.35930   0.34750   0.00000  Uiso   1.00
H112   H     0.53990   0.03510   0.56750   0.00000  Uiso   1.00
loop_
_geom_bond_atom_site_label_1
_geom_bond_atom_site_label_2
_geom_bond_distance
_geom_bond_site_symmetry_2
_ccdc_geom_bond_type
Co1    O2      2.079   .     S
Co1    O3      2.143   .     S
Co1    O6      2.075   .     S
Co1    O12     2.139   .     S
Co1    N14     2.139   .     S
Co1    N71     2.146   .     S
O2     C31     1.249   .     S
O3     H4      0.820   .     S
O3     H55     0.782   .     S
O5     C31     1.247   .     S
O6     H7      0.819   .     S
O6     H54     0.795   .     S
O8     C49     1.263   .     S
N9     C17     1.340   .     S
N9     C18     1.344   .     S
O10    H11     0.820   .     S
O10    C40     1.303   .     S
O12    H13     0.820   .     S
O12    H56     0.961   .     S
N14    C19     1.347   .     S
N14    C24     1.335   .     S
N15    C41     1.341   .     S
N15    C45     1.335   .     S
N15    Co57    2.146   .     S
C16    C22     1.494   .     S
C16    C26     1.381   1_655 S
C16    C35     1.385   1_655 S
C17    C35     1.396   .     S
C17    C39     1.497   .     S
C18    C28     1.478   .     S
C18    C26     1.405   .     S
C19    H20     0.930   .     S
C19    C28     1.392   .     S
C21    C22     1.396   .     S
C21    C31     1.525   .     S
C21    C32     1.395   .     S
C22    C29     1.405   .     S
O23    C40     1.212   .     S
C24    H25     0.931   .     S
C24    C43     1.372   .     S
C26    C16     1.381   1_455 S
C26    H27     0.930   1_455 S
H27    C26     0.930   1_655 S
C28    C47     1.387   .     S
C29    C37     1.384   .     S
C29    C49     1.520   1_655 S
C30    C32     1.384   .     S
C30    C37     1.384   .     S
C30    C40     1.495   .     S
C32    H33     0.930   .     S
O34    C49     1.225   .     S
C35    C16     1.385   1_455 S
C35    H36     0.930   1_455 S
H36    C35     0.930   1_655 S
C37    H38     0.929   .     S
C39    C50     1.382   .     S
C39    C45     1.389   .     S
C41    H42     0.930   .     S
C41    C52     1.397   .     S
C43    H44     0.929   .     S
C43    C47     1.376   .     S
C45    H46     0.930   .     S
C47    H48     0.930   .     S
C49    C29     1.520   1_455 S
C50    H51     0.930   .     S
C50    C52     1.386   .     S
C52    H53     0.930   .     S
Co57   O58     2.079   .     S
Co57   O59     2.143   .     S
Co57   O62     2.075   .     S
Co57   O68     2.139   .     S
Co57   N70     2.139   .     S
O58    C87     1.249   .     S
O59    H60     0.820   .     S
O59    H111    0.782   .     S
O61    C87     1.247   1_565 S
O62    H63     0.819   .     S
O62    H110    0.795   .     S
O64    C105    1.263   1_545 S
N65    C73     1.340   .     S
N65    C74     1.344   1_565 S
O66    H67     0.820   .     S
O66    C96     1.303   1_545 S
O68    H69     0.820   .     S
O68    H112    0.961   .     S
N70    C75     1.347   .     S
N70    C80     1.335   .     S
N71    C97     1.341   .     S
N71    C101    1.335   .     S
C72    C78     1.494   1_565 S
C72    C82     1.381   1_465 S
C72    C91     1.385   1_455 S
C73    C91     1.396   .     S
C73    C95     1.497   .     S
C74    N65     1.344   1_545 S
C74    C84     1.478   .     S
C74    C82     1.405   .     S
C75    H76     0.930   .     S
C75    C84     1.392   .     S
C77    C78     1.396   .     S
C77    C87     1.525   .     S
C77    C88     1.395   .     S
C78    C72     1.494   1_545 S
C78    C85     1.405   1_545 S
O79    C96     1.212   .     S
C80    H81     0.931   .     S
C80    C99     1.372   .     S
C82    C72     1.381   1_645 S
C82    H83     0.930   1_655 S
H83    C82     0.930   1_455 S
C84    C103    1.387   .     S
C85    C78     1.405   1_565 S
C85    C93     1.384   .     S
C85    C105    1.520   1_455 S
C86    C88     1.384   1_565 S
C86    C93     1.384   .     S
C86    C96     1.495   .     S
C87    O61     1.247   1_545 S
C88    C86     1.384   1_545 S
C88    H89     0.930   .     S
O90    C105    1.225   .     S
C91    C72     1.385   1_655 S
C91    H92     0.930   1_655 S
H92    C91     0.930   1_455 S
C93    H94     0.929   .     S
C95    C106    1.382   .     S
C95    C101    1.389   .     S
C96    O66     1.303   1_565 S
C97    H98     0.930   .     S
C97    C108    1.397   .     S
C99    H100    0.929   .     S
C99    C103    1.376   .     S
C101   H102    0.930   .     S
C103   H104    0.930   .     S
C105   O64     1.263   1_565 S
C105   C85     1.520   1_655 S
C106   H107    0.930   .     S
C106   C108    1.386   .     S
C108   H109    0.930   .     S
