data_YEXCOW_FSR
_audit_creation_date              2024-06-11
_audit_creation_method            'Materials Studio'
_symmetry_space_group_name_H-M    'P1'
_symmetry_Int_Tables_number       1
_symmetry_cell_setting            triclinic
loop_
_symmetry_equiv_pos_as_xyz
  x,y,z
_cell_length_a                    10.7499
_cell_length_b                    12.8409
_cell_length_c                    36.2495
_cell_angle_alpha                 90.0000
_cell_angle_beta                  90.0000
_cell_angle_gamma                 90.0000
loop_
_atom_site_label
_atom_site_type_symbol
_atom_site_fract_x
_atom_site_fract_y
_atom_site_fract_z
_atom_site_U_iso_or_equiv
_atom_site_adp_type
_atom_site_occupancy
O1     O     0.35930   0.55730   0.14262   0.00000  Uiso   1.00
O2     O     0.35600   0.55870   0.55219   0.00000  Uiso   1.00
O3     O     0.38180   0.65180   0.60310   0.00000  Uiso   1.00
O4     O     0.39060   0.64620   0.09260   0.00000  Uiso   1.00
C5     C     0.40510   0.63650   0.56840   0.00000  Uiso   1.00
C6     C     0.40410   0.63390   0.12650   0.00000  Uiso   1.00
C7     C     0.58570   0.87350   0.54460   0.00000  Uiso   1.00
H8     H     0.60490   0.93820   0.55460   0.00000  Uiso   1.00
C9     C     0.62130   0.84770   0.18870   0.00000  Uiso   1.00
C10    C     0.51360   0.68580   0.18400   0.00000  Uiso   1.00
H11    H     0.48220   0.62610   0.19510   0.00000  Uiso   1.00
C12    C     0.68240   0.92160   0.24830   0.00000  Uiso   1.00
H13    H     0.63790   0.86870   0.25990   0.00000  Uiso   1.00
C14    C     0.49230   0.70550   0.14690   0.00000  Uiso   1.00
C15    C     0.68670   0.92860   0.21110   0.00000  Uiso   1.00
C16    C     0.58070   0.75490   0.20350   0.00000  Uiso   1.00
H17    H     0.60030   0.73960   0.22790   0.00000  Uiso   1.00
C18    C     0.68910   0.92570   0.48540   0.00000  Uiso   1.00
C19    C     0.62210   0.84790   0.50670   0.00000  Uiso   1.00
C20    C     0.69350   0.92230   0.44780   0.00000  Uiso   1.00
H21    H     0.65760   0.86640   0.43540   0.00000  Uiso   1.00
C22    C     0.58970   0.75310   0.49330   0.00000  Uiso   1.00
H23    H     0.61820   0.73400   0.47010   0.00000  Uiso   1.00
C24    C     0.53550   0.79800   0.13010   0.00000  Uiso   1.00
H25    H     0.51870   0.81270   0.10550   0.00000  Uiso   1.00
C26    C     0.52400   0.80180   0.56460   0.00000  Uiso   1.00
H27    H     0.51250   0.81210   0.58980   0.00000  Uiso   1.00
C28    C     0.74470   0.90730   0.36880   0.00000  Uiso   1.00
H29    H     0.73690   0.84520   0.38180   0.00000  Uiso   1.00
C30    C     0.60260   0.86450   0.15140   0.00000  Uiso   1.00
H31    H     0.63710   0.92330   0.14050   0.00000  Uiso   1.00
C32    C     0.51550   0.68290   0.51280   0.00000  Uiso   1.00
H33    H     0.49300   0.61910   0.50270   0.00000  Uiso   1.00
C34    C     0.47690   0.71120   0.54760   0.00000  Uiso   1.00
C35    C     0.75120   0.90690   0.32980   0.00000  Uiso   1.00
H36    H     0.75630   0.84410   0.31710   0.00000  Uiso   1.00
O37    O     0.14070   0.44270   0.14262   0.00000  Uiso   1.00
O38    O     0.14400   0.44130   0.55219   0.00000  Uiso   1.00
O39    O     0.11820   0.34820   0.60310   0.00000  Uiso   1.00
O40    O     0.10940   0.35380   0.09260   0.00000  Uiso   1.00
C41    C     0.09490   0.36350   0.56840   0.00000  Uiso   1.00
C42    C     0.09590   0.36610   0.12650   0.00000  Uiso   1.00
C43    C     0.91430   0.12650   0.54460   0.00000  Uiso   1.00
H44    H     0.89510   0.06180   0.55460   0.00000  Uiso   1.00
C45    C     0.87870   0.15230   0.18870   0.00000  Uiso   1.00
C46    C     0.98640   0.31420   0.18400   0.00000  Uiso   1.00
H47    H     0.01780   0.37390   0.19510   0.00000  Uiso   1.00
C48    C     0.81760   0.07840   0.24830   0.00000  Uiso   1.00
H49    H     0.86210   0.13130   0.25990   0.00000  Uiso   1.00
C50    C     0.00770   0.29450   0.14690   0.00000  Uiso   1.00
C51    C     0.81330   0.07140   0.21110   0.00000  Uiso   1.00
C52    C     0.91930   0.24510   0.20350   0.00000  Uiso   1.00
H53    H     0.89970   0.26040   0.22790   0.00000  Uiso   1.00
C54    C     0.81090   0.07430   0.48540   0.00000  Uiso   1.00
C55    C     0.87790   0.15210   0.50670   0.00000  Uiso   1.00
C56    C     0.80650   0.07770   0.44780   0.00000  Uiso   1.00
H57    H     0.84240   0.13360   0.43540   0.00000  Uiso   1.00
C58    C     0.91030   0.24690   0.49330   0.00000  Uiso   1.00
H59    H     0.88180   0.26600   0.47010   0.00000  Uiso   1.00
C60    C     0.96450   0.20200   0.13010   0.00000  Uiso   1.00
H61    H     0.98130   0.18730   0.10550   0.00000  Uiso   1.00
C62    C     0.97600   0.19820   0.56460   0.00000  Uiso   1.00
H63    H     0.98750   0.18790   0.58980   0.00000  Uiso   1.00
C64    C     0.75530   0.09270   0.36880   0.00000  Uiso   1.00
H65    H     0.76310   0.15480   0.38180   0.00000  Uiso   1.00
C66    C     0.89740   0.13550   0.15140   0.00000  Uiso   1.00
H67    H     0.86290   0.07670   0.14050   0.00000  Uiso   1.00
C68    C     0.98450   0.31710   0.51280   0.00000  Uiso   1.00
H69    H     0.00700   0.38090   0.50270   0.00000  Uiso   1.00
C70    C     0.02310   0.28880   0.54760   0.00000  Uiso   1.00
C71    C     0.74880   0.09310   0.32980   0.00000  Uiso   1.00
H72    H     0.74370   0.15590   0.31710   0.00000  Uiso   1.00
O73    O     0.64070   0.55730   0.35738   0.00000  Uiso   1.00
O74    O     0.64400   0.55870   0.94781   0.00000  Uiso   1.00
O75    O     0.61820   0.65180   0.89690   0.00000  Uiso   1.00
O76    O     0.60940   0.64620   0.40740   0.00000  Uiso   1.00
C77    C     0.59490   0.63650   0.93160   0.00000  Uiso   1.00
C78    C     0.59590   0.63390   0.37350   0.00000  Uiso   1.00
C79    C     0.41430   0.87350   0.95540   0.00000  Uiso   1.00
H80    H     0.39510   0.93820   0.94540   0.00000  Uiso   1.00
C81    C     0.37870   0.84770   0.31130   0.00000  Uiso   1.00
C82    C     0.48640   0.68580   0.31600   0.00000  Uiso   1.00
H83    H     0.51780   0.62610   0.30490   0.00000  Uiso   1.00
C84    C     0.31760   0.92160   0.25170   0.00000  Uiso   1.00
H85    H     0.36210   0.86870   0.24010   0.00000  Uiso   1.00
C86    C     0.50770   0.70550   0.35310   0.00000  Uiso   1.00
C87    C     0.31330   0.92860   0.28890   0.00000  Uiso   1.00
C88    C     0.41930   0.75490   0.29650   0.00000  Uiso   1.00
H89    H     0.39970   0.73960   0.27210   0.00000  Uiso   1.00
C90    C     0.31090   0.92570   0.01460   0.00000  Uiso   1.00
C91    C     0.37790   0.84790   0.99330   0.00000  Uiso   1.00
C92    C     0.30650   0.92230   0.05220   0.00000  Uiso   1.00
H93    H     0.34240   0.86640   0.06460   0.00000  Uiso   1.00
C94    C     0.41030   0.75310   0.00670   0.00000  Uiso   1.00
H95    H     0.38180   0.73400   0.02990   0.00000  Uiso   1.00
C96    C     0.46450   0.79800   0.36990   0.00000  Uiso   1.00
H97    H     0.48130   0.81270   0.39450   0.00000  Uiso   1.00
C98    C     0.47600   0.80180   0.93540   0.00000  Uiso   1.00
H99    H     0.48750   0.81210   0.91020   0.00000  Uiso   1.00
C100   C     0.25530   0.90730   0.13120   0.00000  Uiso   1.00
H101   H     0.26310   0.84520   0.11820   0.00000  Uiso   1.00
C102   C     0.39740   0.86450   0.34860   0.00000  Uiso   1.00
H103   H     0.36290   0.92330   0.35950   0.00000  Uiso   1.00
C104   C     0.48450   0.68290   0.98720   0.00000  Uiso   1.00
H105   H     0.50700   0.61910   0.99730   0.00000  Uiso   1.00
C106   C     0.52310   0.71120   0.95240   0.00000  Uiso   1.00
C107   C     0.24880   0.90690   0.17020   0.00000  Uiso   1.00
H108   H     0.24370   0.84410   0.18290   0.00000  Uiso   1.00
O109   O     0.85930   0.44270   0.35738   0.00000  Uiso   1.00
O110   O     0.85600   0.44130   0.94781   0.00000  Uiso   1.00
O111   O     0.88180   0.34820   0.89690   0.00000  Uiso   1.00
O112   O     0.89060   0.35380   0.40740   0.00000  Uiso   1.00
C113   C     0.90510   0.36350   0.93160   0.00000  Uiso   1.00
C114   C     0.90410   0.36610   0.37350   0.00000  Uiso   1.00
C115   C     0.08570   0.12650   0.95540   0.00000  Uiso   1.00
H116   H     0.10490   0.06180   0.94540   0.00000  Uiso   1.00
C117   C     0.12130   0.15230   0.31130   0.00000  Uiso   1.00
C118   C     0.01360   0.31420   0.31600   0.00000  Uiso   1.00
H119   H     0.98220   0.37390   0.30490   0.00000  Uiso   1.00
C120   C     0.18240   0.07840   0.25170   0.00000  Uiso   1.00
H121   H     0.13790   0.13130   0.24010   0.00000  Uiso   1.00
C122   C     0.99230   0.29450   0.35310   0.00000  Uiso   1.00
C123   C     0.18670   0.07140   0.28890   0.00000  Uiso   1.00
C124   C     0.08070   0.24510   0.29650   0.00000  Uiso   1.00
H125   H     0.10030   0.26040   0.27210   0.00000  Uiso   1.00
C126   C     0.18910   0.07430   0.01460   0.00000  Uiso   1.00
C127   C     0.12210   0.15210   0.99330   0.00000  Uiso   1.00
C128   C     0.19350   0.07770   0.05220   0.00000  Uiso   1.00
H129   H     0.15760   0.13360   0.06460   0.00000  Uiso   1.00
C130   C     0.08970   0.24690   0.00670   0.00000  Uiso   1.00
H131   H     0.11820   0.26600   0.02990   0.00000  Uiso   1.00
C132   C     0.03550   0.20200   0.36990   0.00000  Uiso   1.00
H133   H     0.01870   0.18730   0.39450   0.00000  Uiso   1.00
C134   C     0.02400   0.19820   0.93540   0.00000  Uiso   1.00
H135   H     0.01250   0.18790   0.91020   0.00000  Uiso   1.00
C136   C     0.24470   0.09270   0.13120   0.00000  Uiso   1.00
H137   H     0.23690   0.15480   0.11820   0.00000  Uiso   1.00
C138   C     0.10260   0.13550   0.34860   0.00000  Uiso   1.00
H139   H     0.13710   0.07670   0.35950   0.00000  Uiso   1.00
C140   C     0.01550   0.31710   0.98720   0.00000  Uiso   1.00
H141   H     0.99300   0.38090   0.99730   0.00000  Uiso   1.00
C142   C     0.97690   0.28880   0.95240   0.00000  Uiso   1.00
C143   C     0.25120   0.09310   0.17020   0.00000  Uiso   1.00
H144   H     0.25630   0.15590   0.18290   0.00000  Uiso   1.00
O145   O     0.64070   0.44270   0.85738   0.00000  Uiso   1.00
O146   O     0.64400   0.44130   0.44781   0.00000  Uiso   1.00
O147   O     0.61820   0.34820   0.39690   0.00000  Uiso   1.00
O148   O     0.60940   0.35380   0.90740   0.00000  Uiso   1.00
C149   C     0.59490   0.36350   0.43160   0.00000  Uiso   1.00
C150   C     0.59590   0.36610   0.87350   0.00000  Uiso   1.00
C151   C     0.41430   0.12650   0.45540   0.00000  Uiso   1.00
H152   H     0.39510   0.06180   0.44540   0.00000  Uiso   1.00
C153   C     0.37870   0.15230   0.81130   0.00000  Uiso   1.00
C154   C     0.48640   0.31420   0.81600   0.00000  Uiso   1.00
H155   H     0.51780   0.37390   0.80490   0.00000  Uiso   1.00
C156   C     0.31760   0.07840   0.75170   0.00000  Uiso   1.00
H157   H     0.36210   0.13130   0.74010   0.00000  Uiso   1.00
C158   C     0.50770   0.29450   0.85310   0.00000  Uiso   1.00
C159   C     0.31330   0.07140   0.78890   0.00000  Uiso   1.00
C160   C     0.41930   0.24510   0.79650   0.00000  Uiso   1.00
H161   H     0.39970   0.26040   0.77210   0.00000  Uiso   1.00
C162   C     0.31090   0.07430   0.51460   0.00000  Uiso   1.00
C163   C     0.37790   0.15210   0.49330   0.00000  Uiso   1.00
C164   C     0.30650   0.07770   0.55220   0.00000  Uiso   1.00
H165   H     0.34240   0.13360   0.56460   0.00000  Uiso   1.00
C166   C     0.41030   0.24690   0.50670   0.00000  Uiso   1.00
H167   H     0.38180   0.26600   0.52990   0.00000  Uiso   1.00
C168   C     0.46450   0.20200   0.86990   0.00000  Uiso   1.00
H169   H     0.48130   0.18730   0.89450   0.00000  Uiso   1.00
C170   C     0.47600   0.19820   0.43540   0.00000  Uiso   1.00
H171   H     0.48750   0.18790   0.41020   0.00000  Uiso   1.00
C172   C     0.25530   0.09270   0.63120   0.00000  Uiso   1.00
H173   H     0.26310   0.15480   0.61820   0.00000  Uiso   1.00
C174   C     0.39740   0.13550   0.84860   0.00000  Uiso   1.00
H175   H     0.36290   0.07670   0.85950   0.00000  Uiso   1.00
C176   C     0.48450   0.31710   0.48720   0.00000  Uiso   1.00
H177   H     0.50700   0.38090   0.49730   0.00000  Uiso   1.00
C178   C     0.52310   0.28880   0.45240   0.00000  Uiso   1.00
C179   C     0.24880   0.09310   0.67020   0.00000  Uiso   1.00
H180   H     0.24370   0.15590   0.68290   0.00000  Uiso   1.00
O181   O     0.85930   0.55730   0.85738   0.00000  Uiso   1.00
O182   O     0.85600   0.55870   0.44781   0.00000  Uiso   1.00
O183   O     0.88180   0.65180   0.39690   0.00000  Uiso   1.00
O184   O     0.89060   0.64620   0.90740   0.00000  Uiso   1.00
C185   C     0.90510   0.63650   0.43160   0.00000  Uiso   1.00
C186   C     0.90410   0.63390   0.87350   0.00000  Uiso   1.00
C187   C     0.08570   0.87350   0.45540   0.00000  Uiso   1.00
H188   H     0.10490   0.93820   0.44540   0.00000  Uiso   1.00
C189   C     0.12130   0.84770   0.81130   0.00000  Uiso   1.00
C190   C     0.01360   0.68580   0.81600   0.00000  Uiso   1.00
H191   H     0.98220   0.62610   0.80490   0.00000  Uiso   1.00
C192   C     0.18240   0.92160   0.75170   0.00000  Uiso   1.00
H193   H     0.13790   0.86870   0.74010   0.00000  Uiso   1.00
C194   C     0.99230   0.70550   0.85310   0.00000  Uiso   1.00
C195   C     0.18670   0.92860   0.78890   0.00000  Uiso   1.00
C196   C     0.08070   0.75490   0.79650   0.00000  Uiso   1.00
H197   H     0.10030   0.73960   0.77210   0.00000  Uiso   1.00
C198   C     0.18910   0.92570   0.51460   0.00000  Uiso   1.00
C199   C     0.12210   0.84790   0.49330   0.00000  Uiso   1.00
C200   C     0.19350   0.92230   0.55220   0.00000  Uiso   1.00
H201   H     0.15760   0.86640   0.56460   0.00000  Uiso   1.00
C202   C     0.08970   0.75310   0.50670   0.00000  Uiso   1.00
H203   H     0.11820   0.73400   0.52990   0.00000  Uiso   1.00
C204   C     0.03550   0.79800   0.86990   0.00000  Uiso   1.00
H205   H     0.01870   0.81270   0.89450   0.00000  Uiso   1.00
C206   C     0.02400   0.80180   0.43540   0.00000  Uiso   1.00
H207   H     0.01250   0.81210   0.41020   0.00000  Uiso   1.00
C208   C     0.24470   0.90730   0.63120   0.00000  Uiso   1.00
H209   H     0.23690   0.84520   0.61820   0.00000  Uiso   1.00
C210   C     0.10260   0.86450   0.84860   0.00000  Uiso   1.00
H211   H     0.13710   0.92330   0.85950   0.00000  Uiso   1.00
C212   C     0.01550   0.68290   0.48720   0.00000  Uiso   1.00
H213   H     0.99300   0.61910   0.49730   0.00000  Uiso   1.00
C214   C     0.97690   0.71120   0.45240   0.00000  Uiso   1.00
C215   C     0.25120   0.90690   0.67020   0.00000  Uiso   1.00
H216   H     0.25630   0.84410   0.68290   0.00000  Uiso   1.00
O217   O     0.35930   0.44270   0.64262   0.00000  Uiso   1.00
O218   O     0.35600   0.44130   0.05219   0.00000  Uiso   1.00
O219   O     0.38180   0.34820   0.10310   0.00000  Uiso   1.00
O220   O     0.39060   0.35380   0.59260   0.00000  Uiso   1.00
C221   C     0.40510   0.36350   0.06840   0.00000  Uiso   1.00
C222   C     0.40410   0.36610   0.62650   0.00000  Uiso   1.00
C223   C     0.58570   0.12650   0.04460   0.00000  Uiso   1.00
H224   H     0.60490   0.06180   0.05460   0.00000  Uiso   1.00
C225   C     0.62130   0.15230   0.68870   0.00000  Uiso   1.00
C226   C     0.51360   0.31420   0.68400   0.00000  Uiso   1.00
H227   H     0.48220   0.37390   0.69510   0.00000  Uiso   1.00
C228   C     0.68240   0.07840   0.74830   0.00000  Uiso   1.00
H229   H     0.63790   0.13130   0.75990   0.00000  Uiso   1.00
C230   C     0.49230   0.29450   0.64690   0.00000  Uiso   1.00
C231   C     0.68670   0.07140   0.71110   0.00000  Uiso   1.00
C232   C     0.58070   0.24510   0.70350   0.00000  Uiso   1.00
H233   H     0.60030   0.26040   0.72790   0.00000  Uiso   1.00
C234   C     0.68910   0.07430   0.98540   0.00000  Uiso   1.00
C235   C     0.62210   0.15210   0.00670   0.00000  Uiso   1.00
C236   C     0.69350   0.07770   0.94780   0.00000  Uiso   1.00
H237   H     0.65760   0.13360   0.93540   0.00000  Uiso   1.00
C238   C     0.58970   0.24690   0.99330   0.00000  Uiso   1.00
H239   H     0.61820   0.26600   0.97010   0.00000  Uiso   1.00
C240   C     0.53550   0.20200   0.63010   0.00000  Uiso   1.00
H241   H     0.51870   0.18730   0.60550   0.00000  Uiso   1.00
C242   C     0.52400   0.19820   0.06460   0.00000  Uiso   1.00
H243   H     0.51250   0.18790   0.08980   0.00000  Uiso   1.00
C244   C     0.74470   0.09270   0.86880   0.00000  Uiso   1.00
H245   H     0.73690   0.15480   0.88180   0.00000  Uiso   1.00
C246   C     0.60260   0.13550   0.65140   0.00000  Uiso   1.00
H247   H     0.63710   0.07670   0.64050   0.00000  Uiso   1.00
C248   C     0.51550   0.31710   0.01280   0.00000  Uiso   1.00
H249   H     0.49300   0.38090   0.00270   0.00000  Uiso   1.00
C250   C     0.47690   0.28880   0.04760   0.00000  Uiso   1.00
C251   C     0.75120   0.09310   0.82980   0.00000  Uiso   1.00
H252   H     0.75630   0.15590   0.81710   0.00000  Uiso   1.00
O253   O     0.14070   0.55730   0.64262   0.00000  Uiso   1.00
O254   O     0.14400   0.55870   0.05219   0.00000  Uiso   1.00
O255   O     0.11820   0.65180   0.10310   0.00000  Uiso   1.00
O256   O     0.10940   0.64620   0.59260   0.00000  Uiso   1.00
C257   C     0.09490   0.63650   0.06840   0.00000  Uiso   1.00
C258   C     0.09590   0.63390   0.62650   0.00000  Uiso   1.00
C259   C     0.91430   0.87350   0.04460   0.00000  Uiso   1.00
H260   H     0.89510   0.93820   0.05460   0.00000  Uiso   1.00
C261   C     0.87870   0.84770   0.68870   0.00000  Uiso   1.00
C262   C     0.98640   0.68580   0.68400   0.00000  Uiso   1.00
H263   H     0.01780   0.62610   0.69510   0.00000  Uiso   1.00
C264   C     0.81760   0.92160   0.74830   0.00000  Uiso   1.00
H265   H     0.86210   0.86870   0.75990   0.00000  Uiso   1.00
C266   C     0.00770   0.70550   0.64690   0.00000  Uiso   1.00
C267   C     0.81330   0.92860   0.71110   0.00000  Uiso   1.00
C268   C     0.91930   0.75490   0.70350   0.00000  Uiso   1.00
H269   H     0.89970   0.73960   0.72790   0.00000  Uiso   1.00
C270   C     0.81090   0.92570   0.98540   0.00000  Uiso   1.00
C271   C     0.87790   0.84790   0.00670   0.00000  Uiso   1.00
C272   C     0.80650   0.92230   0.94780   0.00000  Uiso   1.00
H273   H     0.84240   0.86640   0.93540   0.00000  Uiso   1.00
C274   C     0.91030   0.75310   0.99330   0.00000  Uiso   1.00
H275   H     0.88180   0.73400   0.97010   0.00000  Uiso   1.00
C276   C     0.96450   0.79800   0.63010   0.00000  Uiso   1.00
H277   H     0.98130   0.81270   0.60550   0.00000  Uiso   1.00
C278   C     0.97600   0.80180   0.06460   0.00000  Uiso   1.00
H279   H     0.98750   0.81210   0.08980   0.00000  Uiso   1.00
C280   C     0.75530   0.90730   0.86880   0.00000  Uiso   1.00
H281   H     0.76310   0.84520   0.88180   0.00000  Uiso   1.00
C282   C     0.89740   0.86450   0.65140   0.00000  Uiso   1.00
H283   H     0.86290   0.92330   0.64050   0.00000  Uiso   1.00
C284   C     0.98450   0.68290   0.01280   0.00000  Uiso   1.00
H285   H     0.00700   0.61910   0.00270   0.00000  Uiso   1.00
C286   C     0.02310   0.71120   0.04760   0.00000  Uiso   1.00
C287   C     0.74880   0.90690   0.82980   0.00000  Uiso   1.00
H288   H     0.74370   0.84410   0.81710   0.00000  Uiso   1.00
In289  In    0.25000   0.50000   0.09721   0.00000  Uiso   1.00
In290  In    0.75000   0.50000   0.40279   0.00000  Uiso   1.00
In291  In    0.75000   0.50000   0.90279   0.00000  Uiso   1.00
In292  In    0.25000   0.50000   0.59721   0.00000  Uiso   1.00
N293   N     0.75000   0.00000   0.19190   0.00000  Uiso   1.00
N294   N     0.75000   0.00000   0.50440   0.00000  Uiso   1.00
C295   C     0.75000   0.00000   0.38720   0.00000  Uiso   1.00
C296   C     0.75000   0.00000   0.31070   0.00000  Uiso   1.00
C297   C     0.75000   0.00000   0.42790   0.00000  Uiso   1.00
C298   C     0.75000   0.00000   0.26980   0.00000  Uiso   1.00
N299   N     0.25000   0.00000   0.30810   0.00000  Uiso   1.00
N300   N     0.25000   0.00000   0.99560   0.00000  Uiso   1.00
C301   C     0.25000   0.00000   0.11280   0.00000  Uiso   1.00
C302   C     0.25000   0.00000   0.18930   0.00000  Uiso   1.00
C303   C     0.25000   0.00000   0.07210   0.00000  Uiso   1.00
C304   C     0.25000   0.00000   0.23020   0.00000  Uiso   1.00
N305   N     0.25000   0.00000   0.80810   0.00000  Uiso   1.00
N306   N     0.25000   0.00000   0.49560   0.00000  Uiso   1.00
C307   C     0.25000   0.00000   0.61280   0.00000  Uiso   1.00
C308   C     0.25000   0.00000   0.68930   0.00000  Uiso   1.00
C309   C     0.25000   0.00000   0.57210   0.00000  Uiso   1.00
C310   C     0.25000   0.00000   0.73020   0.00000  Uiso   1.00
N311   N     0.75000   0.00000   0.69190   0.00000  Uiso   1.00
N312   N     0.75000   0.00000   0.00440   0.00000  Uiso   1.00
C313   C     0.75000   0.00000   0.88720   0.00000  Uiso   1.00
C314   C     0.75000   0.00000   0.81070   0.00000  Uiso   1.00
C315   C     0.75000   0.00000   0.92790   0.00000  Uiso   1.00
C316   C     0.75000   0.00000   0.76980   0.00000  Uiso   1.00
loop_
_geom_bond_atom_site_label_1
_geom_bond_atom_site_label_2
_geom_bond_distance
_geom_bond_site_symmetry_2
_ccdc_geom_bond_type
O1     In289   2.152   .     S
O1     C6      1.241   .     S
O2     C5      1.274   .     S
O2     In292   2.128   .     S
O3     C5      1.298   .     S
O3     In292   2.419   .     S
O4     In289   2.416   .     S
O4     C6      1.247   .     S
C5     C34     1.444   .     S
C6     C14     1.514   .     S
C7     H8      0.930   .     S
C7     C19     1.466   .     S
C7     C26     1.347   .     S
C9     C15     1.494   .     S
C9     C16     1.378   .     S
C9     C30     1.384   .     S
C10    H11     0.929   .     S
C10    C14     1.387   .     S
C10    C16     1.344   .     S
C12    H13     0.931   .     S
C12    C15     1.352   .     S
C12    C298    1.466   1_565 S
C14    C24     1.413   .     S
C15    N293    1.337   1_565 S
C16    H17     0.930   .     S
C18    C19     1.454   .     S
C18    C20     1.365   .     S
C18    N294    1.347   1_565 S
C19    C22     1.356   .     S
C20    H21     0.931   .     S
C20    C297    1.373   1_565 S
C22    H23     0.928   .     S
C22    C32     1.396   .     S
C24    H25     0.929   .     S
C24    C30     1.359   .     S
C26    H27     0.931   .     S
C26    C34     1.411   .     S
C28    H29     0.930   .     S
C28    C295    1.366   1_565 S
C28    C35     1.415   .     S
C30    H31     0.929   .     S
C32    H33     0.929   .     S
C32    C34     1.377   .     S
C35    C296    1.382   1_565 S
C35    H36     0.930   .     S
O37    In289   2.152   .     S
O37    C42     1.241   .     S
O38    C41     1.274   .     S
O38    In292   2.128   .     S
O39    C41     1.298   .     S
O39    In292   2.419   .     S
O40    In289   2.416   .     S
O40    C42     1.247   .     S
C41    C70     1.444   .     S
C42    C50     1.514   .     S
C43    H44     0.930   .     S
C43    C55     1.466   .     S
C43    C62     1.347   .     S
C45    C51     1.494   .     S
C45    C52     1.378   .     S
C45    C66     1.384   .     S
C46    H47     0.929   1_655 S
C46    C50     1.387   1_655 S
C46    C52     1.344   .     S
H47    C46     0.929   1_455 S
C48    H49     0.931   .     S
C48    C51     1.352   .     S
C48    C298    1.466   .     S
C50    C60     1.413   1_455 S
C50    C46     1.387   1_455 S
C51    N293    1.337   .     S
C52    H53     0.930   .     S
C54    C55     1.454   .     S
C54    C56     1.365   .     S
C54    N294    1.347   .     S
C55    C58     1.356   .     S
C56    H57     0.931   .     S
C56    C297    1.373   .     S
C58    H59     0.928   .     S
C58    C68     1.396   .     S
C60    C50     1.413   1_655 S
C60    H61     0.929   .     S
C60    C66     1.359   .     S
C62    H63     0.931   .     S
C62    C70     1.411   1_655 S
C64    H65     0.930   .     S
C64    C295    1.366   .     S
C64    C71     1.415   .     S
C66    H67     0.929   .     S
C68    H69     0.929   1_655 S
C68    C70     1.377   1_655 S
H69    C68     0.929   1_455 S
C70    C62     1.411   1_455 S
C70    C68     1.377   1_455 S
C71    C296    1.382   .     S
C71    H72     0.930   .     S
O73    In290   2.152   .     S
O73    C78     1.241   .     S
O74    C77     1.274   .     S
O74    In291   2.128   .     S
O75    C77     1.298   .     S
O75    In291   2.419   .     S
O76    In290   2.416   .     S
O76    C78     1.247   .     S
C77    C106    1.444   .     S
C78    C86     1.514   .     S
C79    H80     0.930   .     S
C79    C91     1.466   .     S
C79    C98     1.347   .     S
C81    C87     1.494   .     S
C81    C88     1.378   .     S
C81    C102    1.384   .     S
C82    H83     0.929   .     S
C82    C86     1.387   .     S
C82    C88     1.344   .     S
C84    H85     0.931   .     S
C84    C87     1.352   .     S
C84    C304    1.466   1_565 S
C86    C96     1.413   .     S
C87    N299    1.337   1_565 S
C88    H89     0.930   .     S
C90    C91     1.454   1_554 S
C90    C92     1.365   .     S
C90    N300    1.347   1_564 S
C91    C90     1.454   1_556 S
C91    C94     1.356   1_556 S
C92    H93     0.931   .     S
C92    C303    1.373   1_565 S
C94    C91     1.356   1_554 S
C94    H95     0.928   .     S
C94    C104    1.396   1_554 S
C96    H97     0.929   .     S
C96    C102    1.359   .     S
C98    H99     0.931   .     S
C98    C106    1.411   .     S
C100   H101    0.930   .     S
C100   C301    1.366   1_565 S
C100   C107    1.415   .     S
C102   H103    0.929   .     S
C104   C94     1.396   1_556 S
C104   H105    0.929   .     S
C104   C106    1.377   .     S
C107   C302    1.382   1_565 S
C107   H108    0.930   .     S
O109   In290   2.152   .     S
O109   C114    1.241   .     S
O110   C113    1.274   .     S
O110   In291   2.128   .     S
O111   C113    1.298   .     S
O111   In291   2.419   .     S
O112   In290   2.416   .     S
O112   C114    1.247   .     S
C113   C142    1.444   .     S
C114   C122    1.514   .     S
C115   H116    0.930   .     S
C115   C127    1.466   .     S
C115   C134    1.347   .     S
C117   C123    1.494   .     S
C117   C124    1.378   .     S
C117   C138    1.384   .     S
C118   H119    0.929   1_455 S
C118   C122    1.387   1_455 S
C118   C124    1.344   .     S
H119   C118    0.929   1_655 S
C120   H121    0.931   .     S
C120   C123    1.352   .     S
C120   C304    1.466   .     S
C122   C132    1.413   1_655 S
C122   C118    1.387   1_655 S
C123   N299    1.337   .     S
C124   H125    0.930   .     S
C126   C127    1.454   1_554 S
C126   C128    1.365   .     S
C126   N300    1.347   1_554 S
C127   C126    1.454   1_556 S
C127   C130    1.356   1_556 S
C128   H129    0.931   .     S
C128   C303    1.373   .     S
C130   C127    1.356   1_554 S
C130   H131    0.928   .     S
C130   C140    1.396   1_554 S
C132   C122    1.413   1_455 S
C132   H133    0.929   .     S
C132   C138    1.359   .     S
C134   H135    0.931   .     S
C134   C142    1.411   1_455 S
C136   H137    0.930   .     S
C136   C301    1.366   .     S
C136   C143    1.415   .     S
C138   H139    0.929   .     S
C140   C130    1.396   1_556 S
C140   H141    0.929   1_455 S
C140   C142    1.377   1_455 S
H141   C140    0.929   1_655 S
C142   C134    1.411   1_655 S
C142   C140    1.377   1_655 S
C143   C302    1.382   .     S
C143   H144    0.930   .     S
O145   In291   2.152   .     S
O145   C150    1.241   .     S
O146   C149    1.274   .     S
O146   In290   2.128   .     S
O147   C149    1.298   .     S
O147   In290   2.419   .     S
O148   In291   2.416   .     S
O148   C150    1.247   .     S
C149   C178    1.444   .     S
C150   C158    1.514   .     S
C151   H152    0.930   .     S
C151   C163    1.466   .     S
C151   C170    1.347   .     S
C153   C159    1.494   .     S
C153   C160    1.378   .     S
C153   C174    1.384   .     S
C154   H155    0.929   .     S
C154   C158    1.387   .     S
C154   C160    1.344   .     S
C156   H157    0.931   .     S
C156   C159    1.352   .     S
C156   C310    1.466   .     S
C158   C168    1.413   .     S
C159   N305    1.337   .     S
C160   H161    0.930   .     S
C162   C163    1.454   .     S
C162   C164    1.365   .     S
C162   N306    1.347   .     S
C163   C166    1.356   .     S
C164   H165    0.931   .     S
C164   C309    1.373   .     S
C166   H167    0.928   .     S
C166   C176    1.396   .     S
C168   H169    0.929   .     S
C168   C174    1.359   .     S
C170   H171    0.931   .     S
C170   C178    1.411   .     S
C172   H173    0.930   .     S
C172   C307    1.366   .     S
C172   C179    1.415   .     S
C174   H175    0.929   .     S
C176   H177    0.929   .     S
C176   C178    1.377   .     S
C179   C308    1.382   .     S
C179   H180    0.930   .     S
O181   In291   2.152   .     S
O181   C186    1.241   .     S
O182   C185    1.274   .     S
O182   In290   2.128   .     S
O183   C185    1.298   .     S
O183   In290   2.419   .     S
O184   In291   2.416   .     S
O184   C186    1.247   .     S
C185   C214    1.444   .     S
C186   C194    1.514   .     S
C187   H188    0.930   .     S
C187   C199    1.466   .     S
C187   C206    1.347   .     S
C189   C195    1.494   .     S
C189   C196    1.378   .     S
C189   C210    1.384   .     S
C190   H191    0.929   1_455 S
C190   C194    1.387   1_455 S
C190   C196    1.344   .     S
H191   C190    0.929   1_655 S
C192   H193    0.931   .     S
C192   C195    1.352   .     S
C192   C310    1.466   1_565 S
C194   C204    1.413   1_655 S
C194   C190    1.387   1_655 S
C195   N305    1.337   1_565 S
C196   H197    0.930   .     S
C198   C199    1.454   .     S
C198   C200    1.365   .     S
C198   N306    1.347   1_565 S
C199   C202    1.356   .     S
C200   H201    0.931   .     S
C200   C309    1.373   1_565 S
C202   H203    0.928   .     S
C202   C212    1.396   .     S
C204   C194    1.413   1_455 S
C204   H205    0.929   .     S
C204   C210    1.359   .     S
C206   H207    0.931   .     S
C206   C214    1.411   1_455 S
C208   H209    0.930   .     S
C208   C307    1.366   1_565 S
C208   C215    1.415   .     S
C210   H211    0.929   .     S
C212   H213    0.929   1_455 S
C212   C214    1.377   1_455 S
H213   C212    0.929   1_655 S
C214   C206    1.411   1_655 S
C214   C212    1.377   1_655 S
C215   C308    1.382   1_565 S
C215   H216    0.930   .     S
O217   In292   2.152   .     S
O217   C222    1.241   .     S
O218   C221    1.274   .     S
O218   In289   2.128   .     S
O219   C221    1.298   .     S
O219   In289   2.419   .     S
O220   In292   2.416   .     S
O220   C222    1.247   .     S
C221   C250    1.444   .     S
C222   C230    1.514   .     S
C223   H224    0.930   .     S
C223   C235    1.466   .     S
C223   C242    1.347   .     S
C225   C231    1.494   .     S
C225   C232    1.378   .     S
C225   C246    1.384   .     S
C226   H227    0.929   .     S
C226   C230    1.387   .     S
C226   C232    1.344   .     S
C228   H229    0.931   .     S
C228   C231    1.352   .     S
C228   C316    1.466   .     S
C230   C240    1.413   .     S
C231   N311    1.337   .     S
C232   H233    0.930   .     S
C234   C235    1.454   1_556 S
C234   C236    1.365   .     S
C234   N312    1.347   1_556 S
C235   C234    1.454   1_554 S
C235   C238    1.356   1_554 S
C236   H237    0.931   .     S
C236   C315    1.373   .     S
C238   C235    1.356   1_556 S
C238   H239    0.928   .     S
C238   C248    1.396   1_556 S
C240   H241    0.929   .     S
C240   C246    1.359   .     S
C242   H243    0.931   .     S
C242   C250    1.411   .     S
C244   H245    0.930   .     S
C244   C313    1.366   .     S
C244   C251    1.415   .     S
C246   H247    0.929   .     S
C248   C238    1.396   1_554 S
C248   H249    0.929   .     S
C248   C250    1.377   .     S
C251   C314    1.382   .     S
C251   H252    0.930   .     S
O253   In292   2.152   .     S
O253   C258    1.241   .     S
O254   C257    1.274   .     S
O254   In289   2.128   .     S
O255   C257    1.298   .     S
O255   In289   2.419   .     S
O256   In292   2.416   .     S
O256   C258    1.247   .     S
C257   C286    1.444   .     S
C258   C266    1.514   .     S
C259   H260    0.930   .     S
C259   C271    1.466   .     S
C259   C278    1.347   .     S
C261   C267    1.494   .     S
C261   C268    1.378   .     S
C261   C282    1.384   .     S
C262   H263    0.929   1_655 S
C262   C266    1.387   1_655 S
C262   C268    1.344   .     S
H263   C262    0.929   1_455 S
C264   H265    0.931   .     S
C264   C267    1.352   .     S
C264   C316    1.466   1_565 S
C266   C276    1.413   1_455 S
C266   C262    1.387   1_455 S
C267   N311    1.337   1_565 S
C268   H269    0.930   .     S
C270   C271    1.454   1_556 S
C270   C272    1.365   .     S
C270   N312    1.347   1_566 S
C271   C270    1.454   1_554 S
C271   C274    1.356   1_554 S
C272   H273    0.931   .     S
C272   C315    1.373   1_565 S
C274   C271    1.356   1_556 S
C274   H275    0.928   .     S
C274   C284    1.396   1_556 S
C276   C266    1.413   1_655 S
C276   H277    0.929   .     S
C276   C282    1.359   .     S
C278   H279    0.931   .     S
C278   C286    1.411   1_655 S
C280   H281    0.930   .     S
C280   C313    1.366   1_565 S
C280   C287    1.415   .     S
C282   H283    0.929   .     S
C284   C274    1.396   1_554 S
C284   H285    0.929   1_655 S
C284   C286    1.377   1_655 S
H285   C284    0.929   1_455 S
C286   C278    1.411   1_455 S
C286   C284    1.377   1_455 S
C287   C314    1.382   1_565 S
C287   H288    0.930   .     S
N293   C15     1.337   1_545 S
N294   C18     1.347   1_545 S
C295   C28     1.366   1_545 S
C295   C297    1.475   .     S
C296   C35     1.382   1_545 S
C296   C298    1.483   .     S
C297   C20     1.373   1_545 S
C298   C12     1.466   1_545 S
N299   C87     1.337   1_545 S
N300   C90     1.347   1_546 S
N300   C126    1.347   1_556 S
C301   C100    1.366   1_545 S
C301   C303    1.475   .     S
C302   C107    1.382   1_545 S
C302   C304    1.483   .     S
C303   C92     1.373   1_545 S
C304   C84     1.466   1_545 S
N305   C195    1.337   1_545 S
N306   C198    1.347   1_545 S
C307   C208    1.366   1_545 S
C307   C309    1.475   .     S
C308   C215    1.382   1_545 S
C308   C310    1.483   .     S
C309   C200    1.373   1_545 S
C310   C192    1.466   1_545 S
N311   C267    1.337   1_545 S
N312   C234    1.347   1_554 S
N312   C270    1.347   1_544 S
C313   C280    1.366   1_545 S
C313   C315    1.475   .     S
C314   C287    1.382   1_545 S
C314   C316    1.483   .     S
C315   C272    1.373   1_545 S
C316   C264    1.466   1_545 S
