data_YIBZIU_FSR
_audit_creation_date              2024-06-11
_audit_creation_method            'Materials Studio'
_symmetry_space_group_name_H-M    'P1'
_symmetry_Int_Tables_number       1
_symmetry_cell_setting            triclinic
loop_
_symmetry_equiv_pos_as_xyz
  x,y,z
_cell_length_a                    15.8408
_cell_length_b                    16.5349
_cell_length_c                    9.9488
_cell_angle_alpha                 90.0000
_cell_angle_beta                  90.0000
_cell_angle_gamma                 90.0000
loop_
_atom_site_label
_atom_site_type_symbol
_atom_site_fract_x
_atom_site_fract_y
_atom_site_fract_z
_atom_site_U_iso_or_equiv
_atom_site_adp_type
_atom_site_occupancy
C1     C     0.32770   0.07810   0.38970   0.00000  Uiso   1.00
C2     C     0.35810   0.04570   0.52160   0.00000  Uiso   1.00
C3     C     0.32920   0.07610   0.64180   0.00000  Uiso   1.00
H4     H     0.29030   0.11820   0.64170   0.00000  Uiso   1.00
C5     C     0.35760   0.04470   0.76350   0.00000  Uiso   1.00
C6     C     0.41790  -0.01490   0.76020   0.00000  Uiso   1.00
H7     H     0.43950  -0.03250   0.84210   0.00000  Uiso   1.00
C8     C     0.44670  -0.04830   0.65380   0.00000  Uiso   1.00
H9     H     0.48510  -0.09080   0.65810   0.00000  Uiso   1.00
C10    C     0.41600  -0.01630   0.52260   0.00000  Uiso   1.00
H11    H     0.43590  -0.03800   0.44230   0.00000  Uiso   1.00
C12    C     0.32710   0.07960   0.89360   0.00000  Uiso   1.00
C13    C     0.35900   0.26950   0.14260   0.00000  Uiso   1.00
C14    C     0.40170   0.35050   0.17080   0.00000  Uiso   1.00
C15    C     0.35430   0.41910   0.19220   0.00000  Uiso   1.00
H16    H     0.29560   0.41740   0.19140   0.00000  Uiso   1.00
C17    C     0.39850   0.49260   0.21570   0.00000  Uiso   1.00
H18    H     0.36850   0.53850   0.24090   0.00000  Uiso   1.00
C19    C     0.47720   0.49680   0.20300   0.00000  Uiso   1.00
H20    H     0.50340   0.54690   0.21180   0.00000  Uiso   1.00
C21    C     0.52820   0.42700   0.17550   0.00000  Uiso   1.00
C22    C     0.48880   0.35560   0.15270   0.00000  Uiso   1.00
H23    H     0.51940   0.31060   0.12540   0.00000  Uiso   1.00
C24    C     0.62220   0.43260   0.15340   0.00000  Uiso   1.00
In25   In    0.28902   0.12699   0.14330   0.00000  Uiso   1.00
O26    O     0.28380   0.13840   0.38730   0.00000  Uiso   1.00
O27    O     0.34980   0.04300   0.28300   0.00000  Uiso   1.00
O28    O     0.28150   0.26380   0.13590   0.00000  Uiso   1.00
O29    O     0.40240   0.20720   0.13750   0.00000  Uiso   1.00
O30    O     0.65630   0.36830   0.14500   0.00000  Uiso   1.00
O31    O     0.66180   0.49110   0.11460   0.00000  Uiso   1.00
O32    O     0.27990   0.14150   0.89570   0.00000  Uiso   1.00
O33    O     0.35070   0.04550   0.00030   0.00000  Uiso   1.00
C34    C     0.67230   0.92190   0.88970   0.00000  Uiso   1.00
C35    C     0.64190   0.95430   0.02160   0.00000  Uiso   1.00
C36    C     0.67080   0.92390   0.14180   0.00000  Uiso   1.00
H37    H     0.70970   0.88180   0.14170   0.00000  Uiso   1.00
C38    C     0.64240   0.95530   0.26350   0.00000  Uiso   1.00
C39    C     0.58210   1.01490   0.26020   0.00000  Uiso   1.00
H40    H     0.56050   1.03250   0.34210   0.00000  Uiso   1.00
C41    C     0.55330   1.04830   0.15380   0.00000  Uiso   1.00
H42    H     0.51490   1.09080   0.15810   0.00000  Uiso   1.00
C43    C     0.58400   1.01630   0.02260   0.00000  Uiso   1.00
H44    H     0.56410   1.03800   0.94230   0.00000  Uiso   1.00
C45    C     0.67290   0.92040   0.39360   0.00000  Uiso   1.00
C46    C     0.64100   0.73050   0.64260   0.00000  Uiso   1.00
C47    C     0.59830   0.64950   0.67080   0.00000  Uiso   1.00
C48    C     0.64570   0.58090   0.69220   0.00000  Uiso   1.00
H49    H     0.70440   0.58260   0.69140   0.00000  Uiso   1.00
C50    C     0.60150   0.50740   0.71570   0.00000  Uiso   1.00
H51    H     0.63150   0.46150   0.74090   0.00000  Uiso   1.00
C52    C     0.52280   0.50320   0.70300   0.00000  Uiso   1.00
H53    H     0.49660   0.45310   0.71180   0.00000  Uiso   1.00
C54    C     0.47180   0.57300   0.67550   0.00000  Uiso   1.00
C55    C     0.51120   0.64440   0.65270   0.00000  Uiso   1.00
H56    H     0.48060   0.68940   0.62540   0.00000  Uiso   1.00
C57    C     0.37780   0.56740   0.65340   0.00000  Uiso   1.00
In58   In    0.71098   0.87301   0.64330   0.00000  Uiso   1.00
O59    O     0.71620   0.86160   0.88730   0.00000  Uiso   1.00
O60    O     0.65020   0.95700   0.78300   0.00000  Uiso   1.00
O61    O     0.71850   0.73620   0.63590   0.00000  Uiso   1.00
O62    O     0.59760   0.79280   0.63750   0.00000  Uiso   1.00
O63    O     0.34370   0.63170   0.64500   0.00000  Uiso   1.00
O64    O     0.33820   0.50890   0.61460   0.00000  Uiso   1.00
O65    O     0.72010   0.85850   0.39570   0.00000  Uiso   1.00
O66    O     0.64930   0.95450   0.50030   0.00000  Uiso   1.00
C67    C     0.82770   0.42190   0.38970   0.00000  Uiso   1.00
C68    C     0.85810   0.45430   0.52160   0.00000  Uiso   1.00
C69    C     0.82920   0.42390   0.64180   0.00000  Uiso   1.00
H70    H     0.79030   0.38180   0.64170   0.00000  Uiso   1.00
C71    C     0.85760   0.45530   0.76350   0.00000  Uiso   1.00
C72    C     0.91790   0.51490   0.76020   0.00000  Uiso   1.00
H73    H     0.93950   0.53250   0.84210   0.00000  Uiso   1.00
C74    C     0.94670   0.54830   0.65380   0.00000  Uiso   1.00
H75    H     0.98510   0.59080   0.65810   0.00000  Uiso   1.00
C76    C     0.91600   0.51630   0.52260   0.00000  Uiso   1.00
H77    H     0.93590   0.53800   0.44230   0.00000  Uiso   1.00
C78    C     0.82710   0.42040   0.89360   0.00000  Uiso   1.00
C79    C     0.85900   0.23050   0.14260   0.00000  Uiso   1.00
C80    C     0.90170   0.14950   0.17080   0.00000  Uiso   1.00
C81    C     0.85430   0.08090   0.19220   0.00000  Uiso   1.00
H82    H     0.79560   0.08260   0.19140   0.00000  Uiso   1.00
C83    C     0.89850   0.00740   0.21570   0.00000  Uiso   1.00
H84    H     0.86850  -0.03850   0.24090   0.00000  Uiso   1.00
C85    C     0.97720   0.00320   0.20300   0.00000  Uiso   1.00
H86    H     0.00340  -0.04690   0.21180   0.00000  Uiso   1.00
C87    C     0.02820   0.07300   0.17550   0.00000  Uiso   1.00
C88    C     0.98880   0.14440   0.15270   0.00000  Uiso   1.00
H89    H     0.01940   0.18940   0.12540   0.00000  Uiso   1.00
C90    C     0.12220   0.06740   0.15340   0.00000  Uiso   1.00
In91   In    0.78902   0.37301   0.14330   0.00000  Uiso   1.00
O92    O     0.78380   0.36160   0.38730   0.00000  Uiso   1.00
O93    O     0.84980   0.45700   0.28300   0.00000  Uiso   1.00
O94    O     0.78150   0.23620   0.13590   0.00000  Uiso   1.00
O95    O     0.90240   0.29280   0.13750   0.00000  Uiso   1.00
O96    O     0.15630   0.13170   0.14500   0.00000  Uiso   1.00
O97    O     0.16180   0.00890   0.11460   0.00000  Uiso   1.00
O98    O     0.77990   0.35850   0.89570   0.00000  Uiso   1.00
O99    O     0.85070   0.45450   0.00030   0.00000  Uiso   1.00
C100   C     0.17230   0.57810   0.88970   0.00000  Uiso   1.00
C101   C     0.14190   0.54570   0.02160   0.00000  Uiso   1.00
C102   C     0.17080   0.57610   0.14180   0.00000  Uiso   1.00
H103   H     0.20970   0.61820   0.14170   0.00000  Uiso   1.00
C104   C     0.14240   0.54470   0.26350   0.00000  Uiso   1.00
C105   C     0.08210   0.48510   0.26020   0.00000  Uiso   1.00
H106   H     0.06050   0.46750   0.34210   0.00000  Uiso   1.00
C107   C     0.05330   0.45170   0.15380   0.00000  Uiso   1.00
H108   H     0.01490   0.40920   0.15810   0.00000  Uiso   1.00
C109   C     0.08400   0.48370   0.02260   0.00000  Uiso   1.00
H110   H     0.06410   0.46200   0.94230   0.00000  Uiso   1.00
C111   C     0.17290   0.57960   0.39360   0.00000  Uiso   1.00
C112   C     0.14100   0.76950   0.64260   0.00000  Uiso   1.00
C113   C     0.09830   0.85050   0.67080   0.00000  Uiso   1.00
C114   C     0.14570   0.91910   0.69220   0.00000  Uiso   1.00
H115   H     0.20440   0.91740   0.69140   0.00000  Uiso   1.00
C116   C     0.10150   0.99260   0.71570   0.00000  Uiso   1.00
H117   H     0.13150   1.03850   0.74090   0.00000  Uiso   1.00
C118   C     0.02280   0.99680   0.70300   0.00000  Uiso   1.00
H119   H     0.99660   1.04690   0.71180   0.00000  Uiso   1.00
C120   C     0.97180   0.92700   0.67550   0.00000  Uiso   1.00
C121   C     0.01120   0.85560   0.65270   0.00000  Uiso   1.00
H122   H     0.98060   0.81060   0.62540   0.00000  Uiso   1.00
C123   C     0.87780   0.93260   0.65340   0.00000  Uiso   1.00
In124  In    0.21098   0.62699   0.64330   0.00000  Uiso   1.00
O125   O     0.21620   0.63840   0.88730   0.00000  Uiso   1.00
O126   O     0.15020   0.54300   0.78300   0.00000  Uiso   1.00
O127   O     0.21850   0.76380   0.63590   0.00000  Uiso   1.00
O128   O     0.09760   0.70720   0.63750   0.00000  Uiso   1.00
O129   O     0.84370   0.86830   0.64500   0.00000  Uiso   1.00
O130   O     0.83820   0.99110   0.61460   0.00000  Uiso   1.00
O131   O     0.22010   0.64150   0.39570   0.00000  Uiso   1.00
O132   O     0.14930   0.54550   0.50030   0.00000  Uiso   1.00
loop_
_geom_bond_atom_site_label_1
_geom_bond_atom_site_label_2
_geom_bond_distance
_geom_bond_site_symmetry_2
_ccdc_geom_bond_type
C1     C2      1.497   .     S
C1     O26     1.216   .     S
C1     O27     1.259   .     S
C2     C3      1.376   .     S
C2     C10     1.376   .     S
C3     H4      0.930   .     S
C3     C5      1.392   .     S
C5     C6      1.373   .     S
C5     C12     1.497   .     S
C6     H7      0.930   .     S
C6     C8      1.278   .     S
C8     H9      0.930   .     S
C8     C10     1.490   .     S
C10    H11     0.931   .     S
C12    O32     1.268   .     S
C12    O33     1.259   1_556 S
C13    C14     1.526   .     S
C13    O28     1.233   .     S
C13    O29     1.240   .     S
C14    C15     1.377   .     S
C14    C22     1.394   .     S
C15    H16     0.930   .     S
C15    C17     1.422   .     S
C17    H18     0.930   .     S
C17    C19     1.255   .     S
C19    H20     0.931   .     S
C19    C21     1.435   .     S
C21    C24     1.508   .     S
C21    C22     1.355   .     S
C22    H23     0.929   .     S
C24    O30     1.195   .     S
C24    O31     1.216   .     S
In25   O26     2.436   .     S
In25   O96     2.104   .     S
In25   O32     2.479   1_554 S
In25   O33     2.190   .     S
In25   O27     2.188   .     S
In25   O28     2.266   .     S
In25   O29     2.233   .     S
O30    In91    2.104   .     S
O32    In25    2.479   1_556 S
O33    C12     1.259   1_554 S
C34    C35     1.497   1_556 S
C34    O59     1.216   .     S
C34    O60     1.259   .     S
C35    C34     1.497   1_554 S
C35    C36     1.376   .     S
C35    C43     1.376   .     S
C36    H37     0.930   .     S
C36    C38     1.392   .     S
C38    C39     1.373   .     S
C38    C45     1.497   .     S
C39    H40     0.930   .     S
C39    C41     1.278   .     S
C41    H42     0.930   .     S
C41    C43     1.490   .     S
C43    H44     0.931   1_554 S
H44    C43     0.931   1_556 S
C45    O65     1.268   .     S
C45    O66     1.259   .     S
C46    C47     1.526   .     S
C46    O61     1.233   .     S
C46    O62     1.240   .     S
C47    C48     1.377   .     S
C47    C55     1.394   .     S
C48    H49     0.930   .     S
C48    C50     1.422   .     S
C50    H51     0.930   .     S
C50    C52     1.255   .     S
C52    H53     0.931   .     S
C52    C54     1.435   .     S
C54    C57     1.508   .     S
C54    C55     1.355   .     S
C55    H56     0.929   .     S
C57    O63     1.195   .     S
C57    O64     1.216   .     S
In58   O59     2.436   .     S
In58   O129    2.104   .     S
In58   O65     2.479   .     S
In58   O66     2.190   .     S
In58   O60     2.188   .     S
In58   O61     2.266   .     S
In58   O62     2.233   .     S
O63    In124   2.104   .     S
C67    C68     1.497   .     S
C67    O92     1.216   .     S
C67    O93     1.259   .     S
C68    C69     1.376   .     S
C68    C76     1.376   .     S
C69    H70     0.930   .     S
C69    C71     1.392   .     S
C71    C72     1.373   .     S
C71    C78     1.497   .     S
C72    H73     0.930   .     S
C72    C74     1.278   .     S
C74    H75     0.930   .     S
C74    C76     1.490   .     S
C76    H77     0.931   .     S
C78    O98     1.268   .     S
C78    O99     1.259   1_556 S
C79    C80     1.526   .     S
C79    O94     1.233   .     S
C79    O95     1.240   .     S
C80    C81     1.377   .     S
C80    C88     1.394   .     S
C81    H82     0.930   .     S
C81    C83     1.422   .     S
C83    H84     0.930   .     S
C83    C85     1.255   .     S
C85    H86     0.931   1_655 S
C85    C87     1.435   1_655 S
H86    C85     0.931   1_455 S
C87    C85     1.435   1_455 S
C87    C90     1.508   .     S
C87    C88     1.355   1_455 S
C88    H89     0.929   1_655 S
C88    C87     1.355   1_655 S
H89    C88     0.929   1_455 S
C90    O96     1.195   .     S
C90    O97     1.216   .     S
In91   O92     2.436   .     S
In91   O98     2.479   1_554 S
In91   O99     2.190   .     S
In91   O93     2.188   .     S
In91   O94     2.266   .     S
In91   O95     2.233   .     S
O98    In91    2.479   1_556 S
O99    C78     1.259   1_554 S
C100   C101    1.497   1_556 S
C100   O125    1.216   .     S
C100   O126    1.259   .     S
C101   C100    1.497   1_554 S
C101   C102    1.376   .     S
C101   C109    1.376   .     S
C102   H103    0.930   .     S
C102   C104    1.392   .     S
C104   C105    1.373   .     S
C104   C111    1.497   .     S
C105   H106    0.930   .     S
C105   C107    1.278   .     S
C107   H108    0.930   .     S
C107   C109    1.490   .     S
C109   H110    0.931   1_554 S
H110   C109    0.931   1_556 S
C111   O131    1.268   .     S
C111   O132    1.259   .     S
C112   C113    1.526   .     S
C112   O127    1.233   .     S
C112   O128    1.240   .     S
C113   C114    1.377   .     S
C113   C121    1.394   .     S
C114   H115    0.930   .     S
C114   C116    1.422   .     S
C116   H117    0.930   .     S
C116   C118    1.255   .     S
C118   H119    0.931   1_455 S
C118   C120    1.435   1_455 S
H119   C118    0.931   1_655 S
C120   C118    1.435   1_655 S
C120   C123    1.508   .     S
C120   C121    1.355   1_655 S
C121   H122    0.929   1_455 S
C121   C120    1.355   1_455 S
H122   C121    0.929   1_655 S
C123   O129    1.195   .     S
C123   O130    1.216   .     S
In124  O125    2.436   .     S
In124  O131    2.479   .     S
In124  O132    2.190   .     S
In124  O126    2.188   .     S
In124  O127    2.266   .     S
In124  O128    2.233   .     S
