data_YIBZOA_FSR\(2)
_audit_creation_date              2024-06-11
_audit_creation_method            'Materials Studio'
_symmetry_space_group_name_H-M    'P1'
_symmetry_Int_Tables_number       1
_symmetry_cell_setting            triclinic
loop_
_symmetry_equiv_pos_as_xyz
  x,y,z
_cell_length_a                    11.9876
_cell_length_b                    13.0329
_cell_length_c                    18.3012
_cell_angle_alpha                 90.0000
_cell_angle_beta                  125.2600
_cell_angle_gamma                 90.0000
loop_
_atom_site_label
_atom_site_type_symbol
_atom_site_fract_x
_atom_site_fract_y
_atom_site_fract_z
_atom_site_U_iso_or_equiv
_atom_site_adp_type
_atom_site_occupancy
C1     C     0.27630   0.46770   0.12420   0.00000  Uiso   1.00
C2     C     0.29140   0.53600   0.19510   0.00000  Uiso   1.00
C3     C     0.41240   0.58950   0.25290   0.00000  Uiso   1.00
H4     H     0.48400   0.58490   0.24680   0.00000  Uiso   1.00
C5     C     0.42500   0.65030   0.32040   0.00000  Uiso   1.00
C6     C     0.31700   0.65790   0.32880   0.00000  Uiso   1.00
H7     H     0.32620   0.69790   0.37400   0.00000  Uiso   1.00
C8     C     0.19600   0.60600   0.27000   0.00000  Uiso   1.00
H9     H     0.12360   0.61190   0.27530   0.00000  Uiso   1.00
C10    C     0.18270   0.54510   0.20310   0.00000  Uiso   1.00
H11    H     0.10140   0.51040   0.16360   0.00000  Uiso   1.00
C12    C     0.55250   0.71000   0.38100   0.00000  Uiso   1.00
C13    C     0.22570   0.46490   0.88190   0.00000  Uiso   1.00
C14    C     0.20710   0.53380   0.81000   0.00000  Uiso   1.00
C15    C     0.08730   0.58900   0.75570   0.00000  Uiso   1.00
H16    H     0.01900   0.58540   0.76510   0.00000  Uiso   1.00
C17    C     0.06950   0.64990   0.68710   0.00000  Uiso   1.00
C18    C     0.17350   0.65500   0.67460   0.00000  Uiso   1.00
H19    H     0.16100   0.69440   0.62800   0.00000  Uiso   1.00
C20    C     0.29500   0.60260   0.73020   0.00000  Uiso   1.00
H21    H     0.36470   0.60830   0.72220   0.00000  Uiso   1.00
C22    C     0.31190   0.54120   0.79810   0.00000  Uiso   1.00
H23    H     0.39280   0.50510   0.83550   0.00000  Uiso   1.00
C24    C     0.94070   0.71010   0.62870   0.00000  Uiso   1.00
In25   In    0.25212   0.34414   0.00527   0.00000  Uiso   1.00
O26    O     0.17180   0.41170   0.07860   0.00000  Uiso   1.00
O27    O     0.36920   0.46530   0.11190   0.00000  Uiso   1.00
O28    O     0.56770   0.75440   0.44910   0.00000  Uiso   1.00
O29    O     0.64220   0.72000   0.36690   0.00000  Uiso   1.00
O30    O     0.13560   0.46310   0.89750   0.00000  Uiso   1.00
O31    O     0.33040   0.40900   0.92630   0.00000  Uiso   1.00
O32    O     0.85860   0.72090   0.64820   0.00000  Uiso   1.00
O33    O     0.92070   0.74900   0.55720   0.00000  Uiso   1.00
C34    C     0.72370   0.96770   0.37580   0.00000  Uiso   1.00
C35    C     0.70860   0.03600   0.30490   0.00000  Uiso   1.00
C36    C     0.58760   0.08950   0.24710   0.00000  Uiso   1.00
H37    H     0.51600   0.08490   0.25320   0.00000  Uiso   1.00
C38    C     0.57500   0.15030   0.17960   0.00000  Uiso   1.00
C39    C     0.68300   0.15790   0.17120   0.00000  Uiso   1.00
H40    H     0.67380   0.19790   0.12600   0.00000  Uiso   1.00
C41    C     0.80400   0.10600   0.23000   0.00000  Uiso   1.00
H42    H     0.87640   0.11190   0.22470   0.00000  Uiso   1.00
C43    C     0.81730   0.04510   0.29690   0.00000  Uiso   1.00
H44    H     0.89860   0.01040   0.33640   0.00000  Uiso   1.00
C45    C     0.44750   0.21000   0.11900   0.00000  Uiso   1.00
C46    C     0.77430   0.96490   0.61810   0.00000  Uiso   1.00
C47    C     0.79290   0.03380   0.69000   0.00000  Uiso   1.00
C48    C     0.91270   0.08900   0.74430   0.00000  Uiso   1.00
H49    H     0.98100   0.08540   0.73490   0.00000  Uiso   1.00
C50    C     0.93050   0.14990   0.81290   0.00000  Uiso   1.00
C51    C     0.82650   0.15500   0.82540   0.00000  Uiso   1.00
H52    H     0.83900   0.19440   0.87200   0.00000  Uiso   1.00
C53    C     0.70500   0.10260   0.76980   0.00000  Uiso   1.00
H54    H     0.63530   0.10830   0.77780   0.00000  Uiso   1.00
C55    C     0.68810   0.04120   0.70190   0.00000  Uiso   1.00
H56    H     0.60720   0.00510   0.66450   0.00000  Uiso   1.00
C57    C     0.05930   0.21010   0.87130   0.00000  Uiso   1.00
In58   In    0.74788   0.84414   0.49473   0.00000  Uiso   1.00
O59    O     0.82820   0.91170   0.42140   0.00000  Uiso   1.00
O60    O     0.63080   0.96530   0.38810   0.00000  Uiso   1.00
O61    O     0.43230   0.25440   0.05090   0.00000  Uiso   1.00
O62    O     0.35780   0.22000   0.13310   0.00000  Uiso   1.00
O63    O     0.86440   0.96310   0.60250   0.00000  Uiso   1.00
O64    O     0.66960   0.90900   0.57370   0.00000  Uiso   1.00
O65    O     0.14140   0.22090   0.85180   0.00000  Uiso   1.00
O66    O     0.07930   0.24900   0.94280   0.00000  Uiso   1.00
C67    C     0.72370   0.53230   0.87580   0.00000  Uiso   1.00
C68    C     0.70860   0.46400   0.80490   0.00000  Uiso   1.00
C69    C     0.58760   0.41050   0.74710   0.00000  Uiso   1.00
H70    H     0.51600   0.41510   0.75320   0.00000  Uiso   1.00
C71    C     0.57500   0.34970   0.67960   0.00000  Uiso   1.00
C72    C     0.68300   0.34210   0.67120   0.00000  Uiso   1.00
H73    H     0.67380   0.30210   0.62600   0.00000  Uiso   1.00
C74    C     0.80400   0.39400   0.73000   0.00000  Uiso   1.00
H75    H     0.87640   0.38810   0.72470   0.00000  Uiso   1.00
C76    C     0.81730   0.45490   0.79690   0.00000  Uiso   1.00
H77    H     0.89860   0.48960   0.83640   0.00000  Uiso   1.00
C78    C     0.44750   0.29000   0.61900   0.00000  Uiso   1.00
C79    C     0.77430   0.53510   0.11810   0.00000  Uiso   1.00
C80    C     0.79290   0.46620   0.19000   0.00000  Uiso   1.00
C81    C     0.91270   0.41100   0.24430   0.00000  Uiso   1.00
H82    H     0.98100   0.41460   0.23490   0.00000  Uiso   1.00
C83    C     0.93050   0.35010   0.31290   0.00000  Uiso   1.00
C84    C     0.82650   0.34500   0.32540   0.00000  Uiso   1.00
H85    H     0.83900   0.30560   0.37200   0.00000  Uiso   1.00
C86    C     0.70500   0.39740   0.26980   0.00000  Uiso   1.00
H87    H     0.63530   0.39170   0.27780   0.00000  Uiso   1.00
C88    C     0.68810   0.45880   0.20190   0.00000  Uiso   1.00
H89    H     0.60720   0.49490   0.16450   0.00000  Uiso   1.00
C90    C     0.05930   0.28990   0.37130   0.00000  Uiso   1.00
In91   In    0.74788   0.65586   0.99473   0.00000  Uiso   1.00
O92    O     0.82820   0.58830   0.92140   0.00000  Uiso   1.00
O93    O     0.63080   0.53470   0.88810   0.00000  Uiso   1.00
O94    O     0.43230   0.24560   0.55090   0.00000  Uiso   1.00
O95    O     0.35780   0.28000   0.63310   0.00000  Uiso   1.00
O96    O     0.86440   0.53690   0.10250   0.00000  Uiso   1.00
O97    O     0.66960   0.59100   0.07370   0.00000  Uiso   1.00
O98    O     0.14140   0.27910   0.35180   0.00000  Uiso   1.00
O99    O     0.07930   0.25100   0.44280   0.00000  Uiso   1.00
C100   C     0.27630   0.03230   0.62420   0.00000  Uiso   1.00
C101   C     0.29140   0.96400   0.69510   0.00000  Uiso   1.00
C102   C     0.41240   0.91050   0.75290   0.00000  Uiso   1.00
H103   H     0.48400   0.91510   0.74680   0.00000  Uiso   1.00
C104   C     0.42500   0.84970   0.82040   0.00000  Uiso   1.00
C105   C     0.31700   0.84210   0.82880   0.00000  Uiso   1.00
H106   H     0.32620   0.80210   0.87400   0.00000  Uiso   1.00
C107   C     0.19600   0.89400   0.77000   0.00000  Uiso   1.00
H108   H     0.12360   0.88810   0.77530   0.00000  Uiso   1.00
C109   C     0.18270   0.95490   0.70310   0.00000  Uiso   1.00
H110   H     0.10140   0.98960   0.66360   0.00000  Uiso   1.00
C111   C     0.55250   0.79000   0.88100   0.00000  Uiso   1.00
C112   C     0.22570   0.03510   0.38190   0.00000  Uiso   1.00
C113   C     0.20710   0.96620   0.31000   0.00000  Uiso   1.00
C114   C     0.08730   0.91100   0.25570   0.00000  Uiso   1.00
H115   H     0.01900   0.91460   0.26510   0.00000  Uiso   1.00
C116   C     0.06950   0.85010   0.18710   0.00000  Uiso   1.00
C117   C     0.17350   0.84500   0.17460   0.00000  Uiso   1.00
H118   H     0.16100   0.80560   0.12800   0.00000  Uiso   1.00
C119   C     0.29500   0.89740   0.23020   0.00000  Uiso   1.00
H120   H     0.36470   0.89170   0.22220   0.00000  Uiso   1.00
C121   C     0.31190   0.95880   0.29810   0.00000  Uiso   1.00
H122   H     0.39280   0.99490   0.33550   0.00000  Uiso   1.00
C123   C     0.94070   0.78990   0.12870   0.00000  Uiso   1.00
In124  In    0.25212   0.15586   0.50527   0.00000  Uiso   1.00
O125   O     0.17180   0.08830   0.57860   0.00000  Uiso   1.00
O126   O     0.36920   0.03470   0.61190   0.00000  Uiso   1.00
O127   O     0.56770   0.74560   0.94910   0.00000  Uiso   1.00
O128   O     0.64220   0.78000   0.86690   0.00000  Uiso   1.00
O129   O     0.13560   0.03690   0.39750   0.00000  Uiso   1.00
O130   O     0.33040   0.09100   0.42630   0.00000  Uiso   1.00
O131   O     0.85860   0.77910   0.14820   0.00000  Uiso   1.00
O132   O     0.92070   0.75100   0.05720   0.00000  Uiso   1.00
loop_
_geom_bond_atom_site_label_1
_geom_bond_atom_site_label_2
_geom_bond_distance
_geom_bond_site_symmetry_2
_ccdc_geom_bond_type
C1     C2      1.496   .     S
C1     O26     1.261   .     S
C1     O27     1.257   .     S
C2     C3      1.392   .     S
C2     C10     1.398   .     S
C3     H4      0.929   .     S
C3     C5      1.400   .     S
C5     C6      1.393   .     S
C5     C12     1.488   .     S
C6     H7      0.929   .     S
C6     C8      1.385   .     S
C8     H9      0.930   .     S
C8     C10     1.389   .     S
C10    H11     0.929   .     S
C12    O28     1.288   .     S
C12    O29     1.249   .     S
C13    C14     1.500   .     S
C13    O30     1.267   .     S
C13    O31     1.260   .     S
C14    C15     1.386   .     S
C14    C22     1.397   .     S
C15    H16     0.930   .     S
C15    C17     1.394   .     S
C17    C18     1.393   .     S
C17    C24     1.496   1_455 S
C18    H19     0.931   .     S
C18    C20     1.383   .     S
C20    H21     0.931   .     S
C20    C22     1.391   .     S
C22    H23     0.929   .     S
C24    C17     1.496   1_655 S
C24    O32     1.233   .     S
C24    O33     1.290   .     S
In25   O26     2.235   .     S
In25   O61     2.156   .     S
In25   O62     2.505   .     S
In25   O66     2.098   1_554 S
In25   O27     2.260   .     S
In25   O30     2.250   1_554 S
In25   O31     2.291   1_554 S
O28    In58    2.156   .     S
O29    In58    2.505   .     S
O30    In25    2.250   1_556 S
O31    In25    2.291   1_556 S
O33    In58    2.098   .     S
C34    C35     1.496   1_565 S
C34    O59     1.261   .     S
C34    O60     1.257   .     S
C35    C34     1.496   1_545 S
C35    C36     1.392   .     S
C35    C43     1.398   .     S
C36    H37     0.929   .     S
C36    C38     1.400   .     S
C38    C39     1.393   .     S
C38    C45     1.488   .     S
C39    H40     0.929   .     S
C39    C41     1.385   .     S
C41    H42     0.930   .     S
C41    C43     1.389   .     S
C43    H44     0.929   .     S
C45    O61     1.288   .     S
C45    O62     1.249   .     S
C46    C47     1.500   1_565 S
C46    O63     1.267   .     S
C46    O64     1.260   .     S
C47    C46     1.500   1_545 S
C47    C48     1.386   .     S
C47    C55     1.397   .     S
C48    H49     0.930   .     S
C48    C50     1.394   .     S
C50    C51     1.393   .     S
C50    C57     1.496   1_655 S
C51    H52     0.931   .     S
C51    C53     1.383   .     S
C53    H54     0.931   .     S
C53    C55     1.391   .     S
C55    H56     0.929   .     S
C57    C50     1.496   1_455 S
C57    O65     1.233   .     S
C57    O66     1.290   .     S
In58   O59     2.235   .     S
In58   O60     2.260   .     S
In58   O63     2.250   .     S
In58   O64     2.291   .     S
O66    In25    2.098   1_556 S
C67    C68     1.496   .     S
C67    O92     1.261   .     S
C67    O93     1.257   .     S
C68    C69     1.392   .     S
C68    C76     1.398   .     S
C69    H70     0.929   .     S
C69    C71     1.400   .     S
C71    C72     1.393   .     S
C71    C78     1.488   .     S
C72    H73     0.929   .     S
C72    C74     1.385   .     S
C74    H75     0.930   .     S
C74    C76     1.389   .     S
C76    H77     0.929   .     S
C78    O94     1.288   .     S
C78    O95     1.249   .     S
C79    C80     1.500   .     S
C79    O96     1.267   .     S
C79    O97     1.260   .     S
C80    C81     1.386   .     S
C80    C88     1.397   .     S
C81    H82     0.930   .     S
C81    C83     1.394   .     S
C83    C84     1.393   .     S
C83    C90     1.496   1_655 S
C84    H85     0.931   .     S
C84    C86     1.383   .     S
C86    H87     0.931   .     S
C86    C88     1.391   .     S
C88    H89     0.929   .     S
C90    C83     1.496   1_455 S
C90    O98     1.233   .     S
C90    O99     1.290   .     S
In91   O92     2.235   .     S
In91   O127    2.156   .     S
In91   O128    2.505   .     S
In91   O132    2.098   1_556 S
In91   O93     2.260   .     S
In91   O96     2.250   1_556 S
In91   O97     2.291   1_556 S
O94    In124   2.156   .     S
O95    In124   2.505   .     S
O96    In91    2.250   1_554 S
O97    In91    2.291   1_554 S
O99    In124   2.098   .     S
C100   C101    1.496   1_545 S
C100   O125    1.261   .     S
C100   O126    1.257   .     S
C101   C100    1.496   1_565 S
C101   C102    1.392   .     S
C101   C109    1.398   .     S
C102   H103    0.929   .     S
C102   C104    1.400   .     S
C104   C105    1.393   .     S
C104   C111    1.488   .     S
C105   H106    0.929   .     S
C105   C107    1.385   .     S
C107   H108    0.930   .     S
C107   C109    1.389   .     S
C109   H110    0.929   .     S
C111   O127    1.288   .     S
C111   O128    1.249   .     S
C112   C113    1.500   1_545 S
C112   O129    1.267   .     S
C112   O130    1.260   .     S
C113   C112    1.500   1_565 S
C113   C114    1.386   .     S
C113   C121    1.397   .     S
C114   H115    0.930   .     S
C114   C116    1.394   .     S
C116   C117    1.393   .     S
C116   C123    1.496   1_455 S
C117   H118    0.931   .     S
C117   C119    1.383   .     S
C119   H120    0.931   .     S
C119   C121    1.391   .     S
C121   H122    0.929   .     S
C123   C116    1.496   1_655 S
C123   O131    1.233   .     S
C123   O132    1.290   .     S
In124  O125    2.235   .     S
In124  O126    2.260   .     S
In124  O129    2.250   .     S
In124  O130    2.291   .     S
O132   In91    2.098   1_554 S
