data_YIGWAQ_FSR
_audit_creation_date              2024-06-11
_audit_creation_method            'Materials Studio'
_symmetry_space_group_name_H-M    'P1'
_symmetry_Int_Tables_number       1
_symmetry_cell_setting            triclinic
loop_
_symmetry_equiv_pos_as_xyz
  x,y,z
_cell_length_a                    7.2581
_cell_length_b                    19.1760
_cell_length_c                    7.9267
_cell_angle_alpha                 90.0000
_cell_angle_beta                  102.2400
_cell_angle_gamma                 90.0000
loop_
_atom_site_label
_atom_site_type_symbol
_atom_site_fract_x
_atom_site_fract_y
_atom_site_fract_z
_atom_site_U_iso_or_equiv
_atom_site_adp_type
_atom_site_occupancy
Cr1    Cr    0.10925   0.05063   0.62446   0.02408  Uani   1.00
O2     O     0.44050   0.21920   0.60860   0.05428  Uani   1.00
O3     O     0.33730   0.10890   0.63060   0.03212  Uani   1.00
O4     O    -0.08580  -0.08912   0.14840   0.02770  Uani   1.00
O5     O    -0.17190  -0.07670  -0.13900   0.03452  Uani   1.00
O6     O    -0.12920  -0.00151   0.58630   0.02377  Uani   1.00
H7     H    -0.16110  -0.01670   0.67610   0.03600  Uiso   1.00
N8     N    -0.01070   0.13920   0.50310   0.02667  Uani   1.00
N9     N    -0.18200   0.16570   0.42920   0.03060  Uani   1.00
N10    N    -0.33900   0.08620   0.21320   0.02728  Uani   1.00
N11    N    -0.24970   0.02420   0.21110   0.02357  Uani   1.00
C12    C     0.31250   0.17470   0.59150   0.03620  Uani   1.00
C13    C     0.11200   0.19330   0.51520   0.03189  Uani   1.00
C14    C     0.01880   0.25310   0.44850   0.04581  Uani   1.00
H15    H     0.07240   0.29800   0.44260   0.05500  Uiso   1.00
C16    C    -0.16600   0.23490   0.39270   0.04336  Uani   1.00
H17    H    -0.26540   0.26480   0.33850   0.05200  Uiso   1.00
C18    C    -0.34740   0.12120   0.37460   0.03309  Uani   1.00
H19    H    -0.35220   0.08610   0.46500   0.04000  Uiso   1.00
H20    H    -0.46320   0.14990   0.35870   0.04000  Uiso   1.00
C21    C    -0.39350   0.11230   0.05190   0.03123  Uani   1.00
H22    H    -0.45540   0.15560   0.02190   0.03700  Uiso   1.00
C23    C    -0.34370   0.06510  -0.06090   0.03288  Uani   1.00
H24    H    -0.36530   0.06840  -0.18310   0.03900  Uiso   1.00
C25    C    -0.25440   0.01140   0.04420   0.02562  Uani   1.00
C26    C    -0.16620  -0.05570   0.00960   0.02710  Uani   1.00
Cr27   Cr   -0.10925   0.55063  -0.12446   0.02408  Uani   1.00
O28    O    -0.44050   0.71920  -0.10860   0.05428  Uani   1.00
O29    O    -0.33730   0.60890  -0.13060   0.03212  Uani   1.00
O30    O     0.08580   0.41088   0.35160   0.02770  Uani   1.00
O31    O     0.17190   0.42330   0.63900   0.03452  Uani   1.00
O32    O     0.12920   0.49849  -0.08630   0.02377  Uani   1.00
H33    H     0.16110   0.48330  -0.17610   0.03600  Uiso   1.00
N34    N     0.01070   0.63920  -0.00310   0.02667  Uani   1.00
N35    N     0.18200   0.66570   0.07080   0.03060  Uani   1.00
N36    N     0.33900   0.58620   0.28680   0.02728  Uani   1.00
N37    N     0.24970   0.52420   0.28890   0.02357  Uani   1.00
C38    C    -0.31250   0.67470  -0.09150   0.03620  Uani   1.00
C39    C    -0.11200   0.69330  -0.01520   0.03189  Uani   1.00
C40    C    -0.01880   0.75310   0.05150   0.04581  Uani   1.00
H41    H    -0.07240   0.79800   0.05740   0.05500  Uiso   1.00
C42    C     0.16600   0.73490   0.10730   0.04336  Uani   1.00
H43    H     0.26540   0.76480   0.16150   0.05200  Uiso   1.00
C44    C     0.34740   0.62120   0.12540   0.03309  Uani   1.00
H45    H     0.35220   0.58610   0.03500   0.04000  Uiso   1.00
H46    H     0.46320   0.64990   0.14130   0.04000  Uiso   1.00
C47    C     0.39350   0.61230   0.44810   0.03123  Uani   1.00
H48    H     0.45540   0.65560   0.47810   0.03700  Uiso   1.00
C49    C     0.34370   0.56510   0.56090   0.03288  Uani   1.00
H50    H     0.36530   0.56840   0.68310   0.03900  Uiso   1.00
C51    C     0.25440   0.51140   0.45580   0.02562  Uani   1.00
C52    C     0.16620   0.44430   0.49040   0.02710  Uani   1.00
Cr53   Cr   -0.10925  -0.05063   0.37554   0.02408  Uani   1.00
O54    O    -0.44050  -0.21920   0.39140   0.05428  Uani   1.00
O55    O    -0.33730  -0.10890   0.36940   0.03212  Uani   1.00
O56    O     0.08580   0.08912   0.85160   0.02770  Uani   1.00
O57    O     0.17190   0.07670   1.13900   0.03452  Uani   1.00
O58    O     0.12920   0.00151   0.41370   0.02377  Uani   1.00
H59    H     0.16110   0.01670   0.32390   0.03600  Uiso   1.00
N60    N     0.01070  -0.13920   0.49690   0.02667  Uani   1.00
N61    N     0.18200  -0.16570   0.57080   0.03060  Uani   1.00
N62    N     0.33900  -0.08620   0.78680   0.02728  Uani   1.00
N63    N     0.24970  -0.02420   0.78890   0.02357  Uani   1.00
C64    C    -0.31250  -0.17470   0.40850   0.03620  Uani   1.00
C65    C    -0.11200  -0.19330   0.48480   0.03189  Uani   1.00
C66    C    -0.01880  -0.25310   0.55150   0.04581  Uani   1.00
H67    H    -0.07240  -0.29800   0.55740   0.05500  Uiso   1.00
C68    C     0.16600  -0.23490   0.60730   0.04336  Uani   1.00
H69    H     0.26540  -0.26480   0.66150   0.05200  Uiso   1.00
C70    C     0.34740  -0.12120   0.62540   0.03309  Uani   1.00
H71    H     0.35220  -0.08610   0.53500   0.04000  Uiso   1.00
H72    H     0.46320  -0.14990   0.64130   0.04000  Uiso   1.00
C73    C     0.39350  -0.11230   0.94810   0.03123  Uani   1.00
H74    H     0.45540  -0.15560   0.97810   0.03700  Uiso   1.00
C75    C     0.34370  -0.06510   1.06090   0.03288  Uani   1.00
H76    H     0.36530  -0.06840   1.18310   0.03900  Uiso   1.00
C77    C     0.25440  -0.01140   0.95580   0.02562  Uani   1.00
C78    C     0.16620   0.05570   0.99040   0.02710  Uani   1.00
Cr79   Cr    0.10925   0.44937   0.12446   0.02408  Uani   1.00
O80    O     0.44050   0.28080   0.10860   0.05428  Uani   1.00
O81    O     0.33730   0.39110   0.13060   0.03212  Uani   1.00
O82    O    -0.08580   0.58912  -0.35160   0.02770  Uani   1.00
O83    O    -0.17190   0.57670  -0.63900   0.03452  Uani   1.00
O84    O    -0.12920   0.50151   0.08630   0.02377  Uani   1.00
H85    H    -0.16110   0.51670   0.17610   0.03600  Uiso   1.00
N86    N    -0.01070   0.36080   0.00310   0.02667  Uani   1.00
N87    N    -0.18200   0.33430  -0.07080   0.03060  Uani   1.00
N88    N    -0.33900   0.41380  -0.28680   0.02728  Uani   1.00
N89    N    -0.24970   0.47580  -0.28890   0.02357  Uani   1.00
C90    C     0.31250   0.32530   0.09150   0.03620  Uani   1.00
C91    C     0.11200   0.30670   0.01520   0.03189  Uani   1.00
C92    C     0.01880   0.24690  -0.05150   0.04581  Uani   1.00
H93    H     0.07240   0.20200  -0.05740   0.05500  Uiso   1.00
C94    C    -0.16600   0.26510  -0.10730   0.04336  Uani   1.00
H95    H    -0.26540   0.23520  -0.16150   0.05200  Uiso   1.00
C96    C    -0.34740   0.37880  -0.12540   0.03309  Uani   1.00
H97    H    -0.35220   0.41390  -0.03500   0.04000  Uiso   1.00
H98    H    -0.46320   0.35010  -0.14130   0.04000  Uiso   1.00
C99    C    -0.39350   0.38770  -0.44810   0.03123  Uani   1.00
H100   H    -0.45540   0.34440  -0.47810   0.03700  Uiso   1.00
C101   C    -0.34370   0.43490  -0.56090   0.03288  Uani   1.00
H102   H    -0.36530   0.43160  -0.68310   0.03900  Uiso   1.00
C103   C    -0.25440   0.48860  -0.45580   0.02562  Uani   1.00
C104   C    -0.16620   0.55570  -0.49040   0.02710  Uani   1.00
loop_
_atom_site_aniso_label
_atom_site_aniso_U_11
_atom_site_aniso_U_22
_atom_site_aniso_U_33
_atom_site_aniso_U_12
_atom_site_aniso_U_13
_atom_site_aniso_U_23
Cr1       0.03230   0.02460   0.01590  -0.00020   0.00640   0.00210
O2        0.04800   0.04400   0.07100  -0.01500   0.01300  -0.00100
O3        0.03300   0.03700   0.02620  -0.00490   0.00590   0.00290
O4        0.03600   0.03000   0.01710   0.00020   0.00560   0.00070
O5        0.05000   0.03900   0.01580  -0.00910   0.00980  -0.00010
O6        0.02840   0.02930   0.01510  -0.00160   0.00800   0.00290
N8        0.03200   0.02500   0.02300   0.00170   0.00580   0.00400
N9        0.03500   0.02700   0.02900   0.00610   0.00500   0.00310
N10       0.02600   0.03000   0.02500   0.00480   0.00350   0.00570
N11       0.02300   0.02600   0.02000   0.00120   0.00070   0.00250
C12       0.04100   0.03300   0.03800  -0.00900   0.01600   0.00100
C13       0.04100   0.03100   0.02500   0.00000   0.01000   0.00100
C14       0.06300   0.02400   0.05000  -0.00200   0.01100   0.00500
C16       0.05700   0.02700   0.04400   0.01100   0.00600   0.00600
C18       0.03500   0.03400   0.03200   0.00600   0.01100   0.00400
C21       0.02700   0.03400   0.03000  -0.00600   0.00000   0.01000
C23       0.03100   0.04300   0.02300  -0.00600   0.00200   0.00900
C25       0.02500   0.03300   0.01900  -0.00500   0.00500   0.00500
C26       0.03000   0.03100   0.02100  -0.00900   0.00700   0.00500
Cr27      0.03230   0.02460   0.01590   0.00020   0.00640  -0.00210
O28       0.04800   0.04400   0.07100   0.01500   0.01300   0.00100
O29       0.03300   0.03700   0.02620   0.00490   0.00590  -0.00290
O30       0.03600   0.03000   0.01710  -0.00020   0.00560  -0.00070
O31       0.05000   0.03900   0.01580   0.00910   0.00980   0.00010
O32       0.02840   0.02930   0.01510   0.00160   0.00800  -0.00290
N34       0.03200   0.02500   0.02300  -0.00170   0.00580  -0.00400
N35       0.03500   0.02700   0.02900  -0.00610   0.00500  -0.00310
N36       0.02600   0.03000   0.02500  -0.00480   0.00350  -0.00570
N37       0.02300   0.02600   0.02000  -0.00120   0.00070  -0.00250
C38       0.04100   0.03300   0.03800   0.00900   0.01600  -0.00100
C39       0.04100   0.03100   0.02500   0.00000   0.01000  -0.00100
C40       0.06300   0.02400   0.05000   0.00200   0.01100  -0.00500
C42       0.05700   0.02700   0.04400  -0.01100   0.00600  -0.00600
C44       0.03500   0.03400   0.03200  -0.00600   0.01100  -0.00400
C47       0.02700   0.03400   0.03000   0.00600   0.00000  -0.01000
C49       0.03100   0.04300   0.02300   0.00600   0.00200  -0.00900
C51       0.02500   0.03300   0.01900   0.00500   0.00500  -0.00500
C52       0.03000   0.03100   0.02100   0.00900   0.00700  -0.00500
Cr53      0.03230   0.02460   0.01590  -0.00020   0.00640   0.00210
O54       0.04800   0.04400   0.07100  -0.01500   0.01300  -0.00100
O55       0.03300   0.03700   0.02620  -0.00490   0.00590   0.00290
O56       0.03600   0.03000   0.01710   0.00020   0.00560   0.00070
O57       0.05000   0.03900   0.01580  -0.00910   0.00980  -0.00010
O58       0.02840   0.02930   0.01510  -0.00160   0.00800   0.00290
N60       0.03200   0.02500   0.02300   0.00170   0.00580   0.00400
N61       0.03500   0.02700   0.02900   0.00610   0.00500   0.00310
N62       0.02600   0.03000   0.02500   0.00480   0.00350   0.00570
N63       0.02300   0.02600   0.02000   0.00120   0.00070   0.00250
C64       0.04100   0.03300   0.03800  -0.00900   0.01600   0.00100
C65       0.04100   0.03100   0.02500   0.00000   0.01000   0.00100
C66       0.06300   0.02400   0.05000  -0.00200   0.01100   0.00500
C68       0.05700   0.02700   0.04400   0.01100   0.00600   0.00600
C70       0.03500   0.03400   0.03200   0.00600   0.01100   0.00400
C73       0.02700   0.03400   0.03000  -0.00600   0.00000   0.01000
C75       0.03100   0.04300   0.02300  -0.00600   0.00200   0.00900
C77       0.02500   0.03300   0.01900  -0.00500   0.00500   0.00500
C78       0.03000   0.03100   0.02100  -0.00900   0.00700   0.00500
Cr79      0.03230   0.02460   0.01590   0.00020   0.00640  -0.00210
O80       0.04800   0.04400   0.07100   0.01500   0.01300   0.00100
O81       0.03300   0.03700   0.02620   0.00490   0.00590  -0.00290
O82       0.03600   0.03000   0.01710  -0.00020   0.00560  -0.00070
O83       0.05000   0.03900   0.01580   0.00910   0.00980   0.00010
O84       0.02840   0.02930   0.01510   0.00160   0.00800  -0.00290
N86       0.03200   0.02500   0.02300  -0.00170   0.00580  -0.00400
N87       0.03500   0.02700   0.02900  -0.00610   0.00500  -0.00310
N88       0.02600   0.03000   0.02500  -0.00480   0.00350  -0.00570
N89       0.02300   0.02600   0.02000  -0.00120   0.00070  -0.00250
C90       0.04100   0.03300   0.03800   0.00900   0.01600  -0.00100
C91       0.04100   0.03100   0.02500   0.00000   0.01000  -0.00100
C92       0.06300   0.02400   0.05000   0.00200   0.01100  -0.00500
C94       0.05700   0.02700   0.04400  -0.01100   0.00600  -0.00600
C96       0.03500   0.03400   0.03200  -0.00600   0.01100  -0.00400
C99       0.02700   0.03400   0.03000   0.00600   0.00000  -0.01000
C101      0.03100   0.04300   0.02300   0.00600   0.00200  -0.00900
C103      0.02500   0.03300   0.01900   0.00500   0.00500  -0.00500
C104      0.03000   0.03100   0.02100   0.00900   0.00700  -0.00500
loop_
_geom_bond_atom_site_label_1
_geom_bond_atom_site_label_2
_geom_bond_distance
_geom_bond_site_symmetry_2
_ccdc_geom_bond_type
Cr1    O3      1.989   .     S
Cr1    O6      1.966   .     S
Cr1    N8      2.053   .     S
Cr1    O56     1.986   .     S
Cr1    O58     1.950   .     S
Cr1    N63     2.058   .     S
O2     C12     1.248   .     S
O3     C12     1.303   .     S
O4     C26     1.300   .     S
O4     Cr53    1.986   .     S
O5     C26     1.237   .     S
O6     H7      0.846   .     S
O6     Cr53    1.950   .     S
N8     N9      1.356   .     S
N8     C13     1.357   .     S
N9     C16     1.368   .     S
N9     C18     1.462   .     S
N10    N11     1.356   .     S
N10    C21     1.352   .     S
N10    C18     1.457   .     S
N11    C25     1.339   .     S
N11    Cr53    2.058   .     S
C12    C13     1.496   .     S
C13    C14     1.379   .     S
C14    H15     0.950   .     S
C14    C16     1.366   .     S
C16    H17     0.950   .     S
C18    H19     0.989   .     S
C18    H20     0.990   .     S
C21    H22     0.950   .     S
C21    C23     1.373   .     S
C23    H24     0.950   .     S
C23    C25     1.395   .     S
C25    C26     1.488   .     S
Cr27   O29     1.989   .     S
Cr27   O32     1.966   .     S
Cr27   N34     2.053   .     S
Cr27   O82     1.986   .     S
Cr27   O84     1.950   .     S
Cr27   N89     2.058   .     S
O28    C38     1.248   .     S
O29    C38     1.303   .     S
O30    C52     1.300   .     S
O30    Cr79    1.986   .     S
O31    C52     1.237   .     S
O32    H33     0.846   .     S
O32    Cr79    1.950   .     S
N34    N35     1.356   .     S
N34    C39     1.357   .     S
N35    C42     1.368   .     S
N35    C44     1.462   .     S
N36    N37     1.356   .     S
N36    C47     1.352   .     S
N36    C44     1.457   .     S
N37    C51     1.339   .     S
N37    Cr79    2.058   .     S
C38    C39     1.496   .     S
C39    C40     1.379   .     S
C40    H41     0.950   .     S
C40    C42     1.366   .     S
C42    H43     0.950   .     S
C44    H45     0.989   .     S
C44    H46     0.990   .     S
C47    H48     0.950   .     S
C47    C49     1.373   .     S
C49    H50     0.950   .     S
C49    C51     1.395   .     S
C51    C52     1.488   .     S
Cr53   O55     1.989   .     S
Cr53   O58     1.966   .     S
Cr53   N60     2.053   .     S
O54    C64     1.248   .     S
O55    C64     1.303   .     S
O56    C78     1.300   .     S
O57    C78     1.237   .     S
O58    H59     0.846   .     S
N60    N61     1.356   .     S
N60    C65     1.357   .     S
N61    C68     1.368   .     S
N61    C70     1.462   .     S
N62    N63     1.356   .     S
N62    C73     1.352   .     S
N62    C70     1.457   .     S
N63    C77     1.339   .     S
C64    C65     1.496   .     S
C65    C66     1.379   .     S
C66    H67     0.950   .     S
C66    C68     1.366   .     S
C68    H69     0.950   .     S
C70    H71     0.989   .     S
C70    H72     0.990   .     S
C73    H74     0.950   .     S
C73    C75     1.373   .     S
C75    H76     0.950   .     S
C75    C77     1.395   .     S
C77    C78     1.488   .     S
Cr79   O81     1.989   .     S
Cr79   O84     1.966   .     S
Cr79   N86     2.053   .     S
O80    C90     1.248   .     S
O81    C90     1.303   .     S
O82    C104    1.300   .     S
O83    C104    1.237   .     S
O84    H85     0.846   .     S
N86    N87     1.356   .     S
N86    C91     1.357   .     S
N87    C94     1.368   .     S
N87    C96     1.462   .     S
N88    N89     1.356   .     S
N88    C99     1.352   .     S
N88    C96     1.457   .     S
N89    C103    1.339   .     S
C90    C91     1.496   .     S
C91    C92     1.379   .     S
C92    H93     0.950   .     S
C92    C94     1.366   .     S
C94    H95     0.950   .     S
C96    H97     0.989   .     S
C96    H98     0.990   .     S
C99    H100    0.950   .     S
C99    C101    1.373   .     S
C101   H102    0.950   .     S
C101   C103    1.395   .     S
C103   C104    1.488   .     S
