data_image0
_chemical_formula_structural       C6PO3H4C6PO3H4C6PO3H4C6PO3H4C6PO3H4C6PO3H4C6PO3H4C6PO3H4Ce4
_chemical_formula_sum              "C48 P8 O24 H32 Ce4"
_cell_length_a       5.6284
_cell_length_b       28.7487
_cell_length_c       8.3867
_cell_angle_alpha    90
_cell_angle_beta     70.6652
_cell_angle_gamma    90

_space_group_name_H-M_alt    "P 1"
_space_group_IT_number       1

loop_
  _space_group_symop_operation_xyz
  'x, y, z'

loop_
  _atom_site_type_symbol
  _atom_site_label
  _atom_site_symmetry_multiplicity
  _atom_site_fract_x
  _atom_site_fract_y
  _atom_site_fract_z
  _atom_site_occupancy
  C   C1        1.0  0.54312  0.37514  0.47255  1.0000
  C   C2        1.0  0.75825  0.40251  0.42531  1.0000
  C   C3        1.0  0.74242  0.45087  0.43310  1.0000
  C   C4        1.0  0.50798  0.47372  0.49400  1.0000
  C   C5        1.0  0.29081  0.44504  0.54819  1.0000
  C   C6        1.0  0.30900  0.39650  0.53804  1.0000
  P   P1        1.0  0.57838  0.31295  0.50497  1.0000
  O   O1        1.0  0.73056  0.31247  0.66252  1.0000
  O   O2        1.0  0.30903  0.28261  0.49629  1.0000
  O   O3        1.0  0.77377  0.29115  0.32023  1.0000
  H   H1        1.0  0.10475  0.45886  0.60427  1.0000
  H   H2        1.0  0.14149  0.37556  0.59017  1.0000
  H   H3        1.0  0.94008  0.38600  0.39103  1.0000
  H   H4        1.0  0.91776  0.46933  0.39661  1.0000
  C   C7        1.0  0.45688  0.62486  0.52745  1.0000
  C   C8        1.0  0.24175  0.59749  0.57469  1.0000
  C   C9        1.0  0.25758  0.54913  0.56690  1.0000
  C   C10       1.0  0.49202  0.52628  0.50600  1.0000
  C   C11       1.0  0.70919  0.55496  0.45181  1.0000
  C   C12       1.0  0.69100  0.60350  0.46196  1.0000
  P   P2        1.0  0.42162  0.68705  0.49503  1.0000
  O   O4        1.0  0.26944  0.68753  0.33748  1.0000
  O   O5        1.0  0.69097  0.71739  0.50371  1.0000
  O   O6        1.0  0.22623  0.70885  0.67977  1.0000
  H   H5        1.0  0.89525  0.54114  0.39573  1.0000
  H   H6        1.0  0.85851  0.62444  0.40983  1.0000
  H   H7        1.0  0.05992  0.61400  0.60897  1.0000
  H   H8        1.0  0.08224  0.53067  0.60339  1.0000
  C   C13       1.0  0.04312  0.87514  0.47255  1.0000
  C   C14       1.0  0.25825  0.90251  0.42531  1.0000
  C   C15       1.0  0.24242  0.95087  0.43310  1.0000
  C   C16       1.0  0.00798  0.97372  0.49400  1.0000
  C   C17       1.0  0.79081  0.94504  0.54819  1.0000
  C   C18       1.0  0.80900  0.89650  0.53804  1.0000
  P   P3        1.0  0.07838  0.81295  0.50497  1.0000
  O   O7        1.0  0.23056  0.81247  0.66252  1.0000
  O   O8        1.0  0.80903  0.78261  0.49629  1.0000
  O   O9        1.0  0.27377  0.79115  0.32023  1.0000
  H   H9        1.0  0.60475  0.95886  0.60427  1.0000
  H   H10       1.0  0.64149  0.87556  0.59017  1.0000
  H   H11       1.0  0.44008  0.88600  0.39103  1.0000
  H   H12       1.0  0.41776  0.96933  0.39661  1.0000
  C   C19       1.0  0.95688  0.12486  0.52745  1.0000
  C   C20       1.0  0.74175  0.09749  0.57469  1.0000
  C   C21       1.0  0.75758  0.04913  0.56690  1.0000
  C   C22       1.0  0.99202  0.02628  0.50600  1.0000
  C   C23       1.0  0.20919  0.05496  0.45181  1.0000
  C   C24       1.0  0.19100  0.10350  0.46196  1.0000
  P   P4        1.0  0.92162  0.18705  0.49503  1.0000
  O   O10       1.0  0.76944  0.18753  0.33748  1.0000
  O   O11       1.0  0.19097  0.21739  0.50371  1.0000
  O   O12       1.0  0.72623  0.20885  0.67977  1.0000
  H   H13       1.0  0.39525  0.04114  0.39573  1.0000
  H   H14       1.0  0.35851  0.12444  0.40983  1.0000
  H   H15       1.0  0.55992  0.11400  0.60897  1.0000
  H   H16       1.0  0.58224  0.03067  0.60339  1.0000
  C   C25       1.0  0.45688  0.37514  0.02745  1.0000
  C   C26       1.0  0.24175  0.40251  0.07469  1.0000
  C   C27       1.0  0.25758  0.45087  0.06690  1.0000
  C   C28       1.0  0.49202  0.47372  0.00600  1.0000
  C   C29       1.0  0.70919  0.44504  0.95181  1.0000
  C   C30       1.0  0.69100  0.39650  0.96196  1.0000
  P   P5        1.0  0.42162  0.31295  0.99503  1.0000
  O   O13       1.0  0.26944  0.31247  0.83748  1.0000
  O   O14       1.0  0.69097  0.28261  0.00371  1.0000
  O   O15       1.0  0.22623  0.29115  0.17977  1.0000
  H   H17       1.0  0.89525  0.45886  0.89573  1.0000
  H   H18       1.0  0.85851  0.37556  0.90983  1.0000
  H   H19       1.0  0.05992  0.38600  0.10897  1.0000
  H   H20       1.0  0.08224  0.46933  0.10339  1.0000
  C   C31       1.0  0.54312  0.62486  0.97255  1.0000
  C   C32       1.0  0.75825  0.59749  0.92531  1.0000
  C   C33       1.0  0.74242  0.54913  0.93310  1.0000
  C   C34       1.0  0.50798  0.52628  0.99400  1.0000
  C   C35       1.0  0.29081  0.55496  0.04819  1.0000
  C   C36       1.0  0.30900  0.60350  0.03804  1.0000
  P   P6        1.0  0.57838  0.68705  0.00497  1.0000
  O   O16       1.0  0.73056  0.68753  0.16252  1.0000
  O   O17       1.0  0.30903  0.71739  0.99629  1.0000
  O   O18       1.0  0.77377  0.70885  0.82023  1.0000
  H   H21       1.0  0.10475  0.54114  0.10427  1.0000
  H   H22       1.0  0.14149  0.62444  0.09017  1.0000
  H   H23       1.0  0.94008  0.61400  0.89103  1.0000
  H   H24       1.0  0.91776  0.53067  0.89661  1.0000
  C   C37       1.0  0.95688  0.87514  0.02745  1.0000
  C   C38       1.0  0.74175  0.90251  0.07469  1.0000
  C   C39       1.0  0.75758  0.95087  0.06690  1.0000
  C   C40       1.0  0.99202  0.97372  0.00600  1.0000
  C   C41       1.0  0.20919  0.94504  0.95181  1.0000
  C   C42       1.0  0.19100  0.89650  0.96196  1.0000
  P   P7        1.0  0.92162  0.81295  0.99503  1.0000
  O   O19       1.0  0.76944  0.81247  0.83748  1.0000
  O   O20       1.0  0.19097  0.78261  0.00371  1.0000
  O   O21       1.0  0.72623  0.79115  0.17977  1.0000
  H   H25       1.0  0.39525  0.95886  0.89573  1.0000
  H   H26       1.0  0.35851  0.87556  0.90983  1.0000
  H   H27       1.0  0.55992  0.88600  0.10897  1.0000
  H   H28       1.0  0.58224  0.96933  0.10339  1.0000
  C   C43       1.0  0.04312  0.12486  0.97255  1.0000
  C   C44       1.0  0.25825  0.09749  0.92531  1.0000
  C   C45       1.0  0.24242  0.04913  0.93310  1.0000
  C   C46       1.0  0.00798  0.02628  0.99400  1.0000
  C   C47       1.0  0.79081  0.05496  0.04819  1.0000
  C   C48       1.0  0.80900  0.10350  0.03804  1.0000
  P   P8        1.0  0.07838  0.18705  0.00497  1.0000
  O   O22       1.0  0.23056  0.18753  0.16252  1.0000
  O   O23       1.0  0.80903  0.21739  0.99629  1.0000
  O   O24       1.0  0.27377  0.20885  0.82023  1.0000
  H   H29       1.0  0.60475  0.04114  0.10427  1.0000
  H   H30       1.0  0.64149  0.12444  0.09017  1.0000
  H   H31       1.0  0.44008  0.11400  0.89103  1.0000
  H   H32       1.0  0.41776  0.03067  0.89661  1.0000
  Ce  Ce1       1.0  0.00000  0.26033  0.75000  1.0000
  Ce  Ce2       1.0  0.50000  0.76033  0.75000  1.0000
  Ce  Ce3       1.0  0.00000  0.73967  0.25000  1.0000
  Ce  Ce4       1.0  0.50000  0.23967  0.25000  1.0000
