data_image0
_chemical_formula_structural       C6PO3H4C6PO3H4C6PO3H4C6PO3H4C6PO3H4C6PO3H4C6PO3H4C6PO3H4Ba4
_chemical_formula_sum              "C48 P8 O24 H32 Ba4"
_cell_length_a       29.3205
_cell_length_b       5.5533
_cell_length_c       8.5273
_cell_angle_alpha    90
_cell_angle_beta     90.3611
_cell_angle_gamma    90

_space_group_name_H-M_alt    "P 1"
_space_group_IT_number       1

loop_
  _space_group_symop_operation_xyz
  'x, y, z'

loop_
  _atom_site_type_symbol
  _atom_site_label
  _atom_site_symmetry_multiplicity
  _atom_site_fract_x
  _atom_site_fract_y
  _atom_site_fract_z
  _atom_site_occupancy
  C   C1        1.0  0.36733  0.73742  0.40536  1.0000
  C   C2        1.0  0.34829  0.54803  0.48881  1.0000
  C   C3        1.0  0.30239  0.55039  0.52365  1.0000
  C   C4        1.0  0.27444  0.74455  0.47623  1.0000
  C   C5        1.0  0.29431  0.92739  0.38261  1.0000
  C   C6        1.0  0.34045  0.92344  0.34830  1.0000
  P   P1        1.0  0.42807  0.74997  0.38339  1.0000
  O   O1        1.0  0.45072  0.51598  0.49129  1.0000
  O   O2        1.0  0.44527  0.68568  0.19507  1.0000
  O   O3        1.0  0.45178  0.01403  0.45561  1.0000
  H   H1        1.0  0.36893  0.39938  0.53009  1.0000
  H   H2        1.0  0.29031  0.39842  0.58940  1.0000
  H   H3        1.0  0.27565  0.07785  0.33564  1.0000
  H   H4        1.0  0.35542  0.06876  0.28120  1.0000
  C   C7        1.0  0.13267  0.76258  0.59464  1.0000
  C   C8        1.0  0.15171  0.95197  0.51119  1.0000
  C   C9        1.0  0.19761  0.94961  0.47635  1.0000
  C   C10       1.0  0.22556  0.75545  0.52377  1.0000
  C   C11       1.0  0.20569  0.57261  0.61739  1.0000
  C   C12       1.0  0.15955  0.57656  0.65170  1.0000
  P   P2        1.0  0.07193  0.75003  0.61661  1.0000
  O   O4        1.0  0.04928  0.98402  0.50871  1.0000
  O   O5        1.0  0.05473  0.81432  0.80493  1.0000
  O   O6        1.0  0.04822  0.48597  0.54439  1.0000
  H   H5        1.0  0.13107  0.10062  0.46991  1.0000
  H   H6        1.0  0.20969  0.10158  0.41060  1.0000
  H   H7        1.0  0.22435  0.42215  0.66436  1.0000
  H   H8        1.0  0.14458  0.43124  0.71880  1.0000
  C   C13       1.0  0.86733  0.23742  0.40536  1.0000
  C   C14       1.0  0.84829  0.04803  0.48881  1.0000
  C   C15       1.0  0.80239  0.05039  0.52365  1.0000
  C   C16       1.0  0.77444  0.24455  0.47623  1.0000
  C   C17       1.0  0.79431  0.42739  0.38261  1.0000
  C   C18       1.0  0.84045  0.42344  0.34830  1.0000
  P   P3        1.0  0.92807  0.24997  0.38339  1.0000
  O   O7        1.0  0.95072  0.01598  0.49129  1.0000
  O   O8        1.0  0.94527  0.18568  0.19507  1.0000
  O   O9        1.0  0.95178  0.51403  0.45561  1.0000
  H   H9        1.0  0.86893  0.89938  0.53009  1.0000
  H   H10       1.0  0.79031  0.89842  0.58940  1.0000
  H   H11       1.0  0.77565  0.57785  0.33564  1.0000
  H   H12       1.0  0.85542  0.56876  0.28120  1.0000
  C   C19       1.0  0.63267  0.26258  0.59464  1.0000
  C   C20       1.0  0.65171  0.45197  0.51119  1.0000
  C   C21       1.0  0.69761  0.44961  0.47635  1.0000
  C   C22       1.0  0.72556  0.25545  0.52377  1.0000
  C   C23       1.0  0.70569  0.07261  0.61739  1.0000
  C   C24       1.0  0.65955  0.07656  0.65170  1.0000
  P   P4        1.0  0.57193  0.25003  0.61661  1.0000
  O   O10       1.0  0.54928  0.48402  0.50871  1.0000
  O   O11       1.0  0.55473  0.31432  0.80493  1.0000
  O   O12       1.0  0.54822  0.98597  0.54439  1.0000
  H   H13       1.0  0.63107  0.60062  0.46991  1.0000
  H   H14       1.0  0.70969  0.60158  0.41060  1.0000
  H   H15       1.0  0.72435  0.92215  0.66436  1.0000
  H   H16       1.0  0.64458  0.93124  0.71880  1.0000
  C   C25       1.0  0.63267  0.73742  0.09464  1.0000
  C   C26       1.0  0.65171  0.54803  0.01119  1.0000
  C   C27       1.0  0.69761  0.55039  0.97635  1.0000
  C   C28       1.0  0.72556  0.74455  0.02377  1.0000
  C   C29       1.0  0.70569  0.92739  0.11739  1.0000
  C   C30       1.0  0.65955  0.92344  0.15170  1.0000
  P   P5        1.0  0.57193  0.74997  0.11661  1.0000
  O   O13       1.0  0.54928  0.51598  0.00871  1.0000
  O   O14       1.0  0.55473  0.68568  0.30493  1.0000
  O   O15       1.0  0.54822  0.01403  0.04439  1.0000
  H   H17       1.0  0.63107  0.39938  0.96991  1.0000
  H   H18       1.0  0.70969  0.39842  0.91060  1.0000
  H   H19       1.0  0.72435  0.07785  0.16436  1.0000
  H   H20       1.0  0.64458  0.06876  0.21880  1.0000
  C   C31       1.0  0.86733  0.76258  0.90536  1.0000
  C   C32       1.0  0.84829  0.95197  0.98881  1.0000
  C   C33       1.0  0.80239  0.94961  0.02365  1.0000
  C   C34       1.0  0.77444  0.75545  0.97623  1.0000
  C   C35       1.0  0.79431  0.57261  0.88261  1.0000
  C   C36       1.0  0.84045  0.57656  0.84830  1.0000
  P   P6        1.0  0.92807  0.75003  0.88339  1.0000
  O   O16       1.0  0.95072  0.98402  0.99129  1.0000
  O   O17       1.0  0.94527  0.81432  0.69507  1.0000
  O   O18       1.0  0.95178  0.48597  0.95561  1.0000
  H   H21       1.0  0.86893  0.10062  0.03009  1.0000
  H   H22       1.0  0.79031  0.10158  0.08940  1.0000
  H   H23       1.0  0.77565  0.42215  0.83564  1.0000
  H   H24       1.0  0.85542  0.43124  0.78120  1.0000
  C   C37       1.0  0.13267  0.23742  0.09464  1.0000
  C   C38       1.0  0.15171  0.04803  0.01119  1.0000
  C   C39       1.0  0.19761  0.05039  0.97635  1.0000
  C   C40       1.0  0.22556  0.24455  0.02377  1.0000
  C   C41       1.0  0.20569  0.42739  0.11739  1.0000
  C   C42       1.0  0.15955  0.42344  0.15170  1.0000
  P   P7        1.0  0.07193  0.24997  0.11661  1.0000
  O   O19       1.0  0.04928  0.01598  0.00871  1.0000
  O   O20       1.0  0.05473  0.18568  0.30493  1.0000
  O   O21       1.0  0.04822  0.51403  0.04439  1.0000
  H   H25       1.0  0.13107  0.89938  0.96991  1.0000
  H   H26       1.0  0.20969  0.89842  0.91060  1.0000
  H   H27       1.0  0.22435  0.57785  0.16436  1.0000
  H   H28       1.0  0.14458  0.56876  0.21880  1.0000
  C   C43       1.0  0.36733  0.26258  0.90536  1.0000
  C   C44       1.0  0.34829  0.45197  0.98881  1.0000
  C   C45       1.0  0.30239  0.44961  0.02365  1.0000
  C   C46       1.0  0.27444  0.25545  0.97623  1.0000
  C   C47       1.0  0.29431  0.07261  0.88261  1.0000
  C   C48       1.0  0.34045  0.07656  0.84830  1.0000
  P   P8        1.0  0.42807  0.25003  0.88339  1.0000
  O   O22       1.0  0.45072  0.48402  0.99129  1.0000
  O   O23       1.0  0.44527  0.31432  0.69507  1.0000
  O   O24       1.0  0.45178  0.98597  0.95561  1.0000
  H   H29       1.0  0.36893  0.60062  0.03009  1.0000
  H   H30       1.0  0.29031  0.60158  0.08940  1.0000
  H   H31       1.0  0.27565  0.92215  0.83564  1.0000
  H   H32       1.0  0.35542  0.93124  0.78120  1.0000
  Ba  Ba1       1.0  0.00000  0.79674  0.25000  1.0000
  Ba  Ba2       1.0  0.50000  0.29674  0.25000  1.0000
  Ba  Ba3       1.0  0.00000  0.20326  0.75000  1.0000
  Ba  Ba4       1.0  0.50000  0.70326  0.75000  1.0000
