data_image0
_chemical_formula_structural       C6PO3H4C6PO3H4C6PO3H4C6PO3H4C6PO3H4C6PO3H4C6PO3H4C6PO3H4Nd4
_chemical_formula_sum              "C48 P8 O24 H32 Nd4"
_cell_length_a       5.5638
_cell_length_b       28.7601
_cell_length_c       8.2869
_cell_angle_alpha    90
_cell_angle_beta     70.9879
_cell_angle_gamma    90

_space_group_name_H-M_alt    "P 1"
_space_group_IT_number       1

loop_
  _space_group_symop_operation_xyz
  'x, y, z'

loop_
  _atom_site_type_symbol
  _atom_site_label
  _atom_site_symmetry_multiplicity
  _atom_site_fract_x
  _atom_site_fract_y
  _atom_site_fract_z
  _atom_site_occupancy
  C   C1        1.0  0.54107  0.37525  0.47175  1.0000
  C   C2        1.0  0.75836  0.40249  0.42458  1.0000
  C   C3        1.0  0.74339  0.45080  0.43252  1.0000
  C   C4        1.0  0.50748  0.47375  0.49414  1.0000
  C   C5        1.0  0.28811  0.44519  0.54974  1.0000
  C   C6        1.0  0.30559  0.39668  0.53955  1.0000
  P   P1        1.0  0.57721  0.31318  0.50439  1.0000
  O   O1        1.0  0.73300  0.31289  0.66262  1.0000
  O   O2        1.0  0.30659  0.28245  0.49546  1.0000
  O   O3        1.0  0.77389  0.29117  0.31914  1.0000
  H   H1        1.0  0.10103  0.45911  0.60690  1.0000
  H   H2        1.0  0.13683  0.37580  0.59349  1.0000
  H   H3        1.0  0.94126  0.38582  0.39061  1.0000
  H   H4        1.0  0.92050  0.46918  0.39583  1.0000
  C   C7        1.0  0.45893  0.62475  0.52825  1.0000
  C   C8        1.0  0.24164  0.59751  0.57542  1.0000
  C   C9        1.0  0.25661  0.54920  0.56748  1.0000
  C   C10       1.0  0.49252  0.52625  0.50586  1.0000
  C   C11       1.0  0.71189  0.55481  0.45026  1.0000
  C   C12       1.0  0.69441  0.60332  0.46045  1.0000
  P   P2        1.0  0.42279  0.68682  0.49561  1.0000
  O   O4        1.0  0.26700  0.68711  0.33738  1.0000
  O   O5        1.0  0.69341  0.71755  0.50454  1.0000
  O   O6        1.0  0.22611  0.70883  0.68086  1.0000
  H   H5        1.0  0.89897  0.54089  0.39310  1.0000
  H   H6        1.0  0.86317  0.62420  0.40651  1.0000
  H   H7        1.0  0.05874  0.61418  0.60939  1.0000
  H   H8        1.0  0.07950  0.53082  0.60417  1.0000
  C   C13       1.0  0.04107  0.87525  0.47175  1.0000
  C   C14       1.0  0.25836  0.90249  0.42458  1.0000
  C   C15       1.0  0.24339  0.95080  0.43252  1.0000
  C   C16       1.0  0.00748  0.97375  0.49414  1.0000
  C   C17       1.0  0.78811  0.94519  0.54974  1.0000
  C   C18       1.0  0.80559  0.89668  0.53955  1.0000
  P   P3        1.0  0.07721  0.81318  0.50439  1.0000
  O   O7        1.0  0.23300  0.81289  0.66262  1.0000
  O   O8        1.0  0.80659  0.78245  0.49546  1.0000
  O   O9        1.0  0.27389  0.79117  0.31914  1.0000
  H   H9        1.0  0.60103  0.95911  0.60690  1.0000
  H   H10       1.0  0.63683  0.87580  0.59349  1.0000
  H   H11       1.0  0.44126  0.88582  0.39061  1.0000
  H   H12       1.0  0.42050  0.96918  0.39583  1.0000
  C   C19       1.0  0.95893  0.12475  0.52825  1.0000
  C   C20       1.0  0.74164  0.09751  0.57542  1.0000
  C   C21       1.0  0.75661  0.04920  0.56748  1.0000
  C   C22       1.0  0.99252  0.02625  0.50586  1.0000
  C   C23       1.0  0.21189  0.05481  0.45026  1.0000
  C   C24       1.0  0.19441  0.10332  0.46045  1.0000
  P   P4        1.0  0.92279  0.18682  0.49561  1.0000
  O   O10       1.0  0.76700  0.18711  0.33738  1.0000
  O   O11       1.0  0.19341  0.21755  0.50454  1.0000
  O   O12       1.0  0.72611  0.20883  0.68086  1.0000
  H   H13       1.0  0.39897  0.04089  0.39310  1.0000
  H   H14       1.0  0.36317  0.12420  0.40651  1.0000
  H   H15       1.0  0.55874  0.11418  0.60939  1.0000
  H   H16       1.0  0.57950  0.03082  0.60417  1.0000
  C   C25       1.0  0.45893  0.37525  0.02825  1.0000
  C   C26       1.0  0.24164  0.40249  0.07542  1.0000
  C   C27       1.0  0.25661  0.45080  0.06748  1.0000
  C   C28       1.0  0.49252  0.47375  0.00586  1.0000
  C   C29       1.0  0.71189  0.44519  0.95026  1.0000
  C   C30       1.0  0.69441  0.39668  0.96045  1.0000
  P   P5        1.0  0.42279  0.31318  0.99561  1.0000
  O   O13       1.0  0.26700  0.31289  0.83738  1.0000
  O   O14       1.0  0.69341  0.28245  0.00454  1.0000
  O   O15       1.0  0.22611  0.29117  0.18086  1.0000
  H   H17       1.0  0.89897  0.45911  0.89310  1.0000
  H   H18       1.0  0.86317  0.37580  0.90651  1.0000
  H   H19       1.0  0.05874  0.38582  0.10939  1.0000
  H   H20       1.0  0.07950  0.46918  0.10417  1.0000
  C   C31       1.0  0.54107  0.62475  0.97175  1.0000
  C   C32       1.0  0.75836  0.59751  0.92458  1.0000
  C   C33       1.0  0.74339  0.54920  0.93252  1.0000
  C   C34       1.0  0.50748  0.52625  0.99414  1.0000
  C   C35       1.0  0.28811  0.55481  0.04974  1.0000
  C   C36       1.0  0.30559  0.60332  0.03955  1.0000
  P   P6        1.0  0.57721  0.68682  0.00439  1.0000
  O   O16       1.0  0.73300  0.68711  0.16262  1.0000
  O   O17       1.0  0.30659  0.71755  0.99546  1.0000
  O   O18       1.0  0.77389  0.70883  0.81914  1.0000
  H   H21       1.0  0.10103  0.54089  0.10690  1.0000
  H   H22       1.0  0.13683  0.62420  0.09349  1.0000
  H   H23       1.0  0.94126  0.61418  0.89061  1.0000
  H   H24       1.0  0.92050  0.53082  0.89583  1.0000
  C   C37       1.0  0.95893  0.87525  0.02825  1.0000
  C   C38       1.0  0.74164  0.90249  0.07542  1.0000
  C   C39       1.0  0.75661  0.95080  0.06748  1.0000
  C   C40       1.0  0.99252  0.97375  0.00586  1.0000
  C   C41       1.0  0.21189  0.94519  0.95026  1.0000
  C   C42       1.0  0.19441  0.89668  0.96045  1.0000
  P   P7        1.0  0.92279  0.81318  0.99561  1.0000
  O   O19       1.0  0.76700  0.81289  0.83738  1.0000
  O   O20       1.0  0.19341  0.78245  0.00454  1.0000
  O   O21       1.0  0.72611  0.79117  0.18086  1.0000
  H   H25       1.0  0.39897  0.95911  0.89310  1.0000
  H   H26       1.0  0.36317  0.87580  0.90651  1.0000
  H   H27       1.0  0.55874  0.88582  0.10939  1.0000
  H   H28       1.0  0.57950  0.96918  0.10417  1.0000
  C   C43       1.0  0.04107  0.12475  0.97175  1.0000
  C   C44       1.0  0.25836  0.09751  0.92458  1.0000
  C   C45       1.0  0.24339  0.04920  0.93252  1.0000
  C   C46       1.0  0.00748  0.02625  0.99414  1.0000
  C   C47       1.0  0.78811  0.05481  0.04974  1.0000
  C   C48       1.0  0.80559  0.10332  0.03955  1.0000
  P   P8        1.0  0.07721  0.18682  0.00439  1.0000
  O   O22       1.0  0.23300  0.18711  0.16262  1.0000
  O   O23       1.0  0.80659  0.21755  0.99546  1.0000
  O   O24       1.0  0.27389  0.20883  0.81914  1.0000
  H   H29       1.0  0.60103  0.04089  0.10690  1.0000
  H   H30       1.0  0.63683  0.12420  0.09349  1.0000
  H   H31       1.0  0.44126  0.11418  0.89061  1.0000
  H   H32       1.0  0.42050  0.03082  0.89583  1.0000
  Nd  Nd1       1.0  0.00000  0.26041  0.75000  1.0000
  Nd  Nd2       1.0  0.50000  0.76041  0.75000  1.0000
  Nd  Nd3       1.0  0.00000  0.73959  0.25000  1.0000
  Nd  Nd4       1.0  0.50000  0.23959  0.25000  1.0000
