data_image0
_chemical_formula_structural       C6PO3H4C6PO3H8C6PO3H4C6PO3C6PO3H4C6PO3H8C6PO3H4C6PO3La4
_chemical_formula_sum              "C48 P8 O24 H32 La4"
_cell_length_a       5.6306
_cell_length_b       28.7824
_cell_length_c       8.4244
_cell_angle_alpha    90
_cell_angle_beta     70.6989
_cell_angle_gamma    90

_space_group_name_H-M_alt    "P 1"
_space_group_IT_number       1

loop_
  _space_group_symop_operation_xyz
  'x, y, z'

loop_
  _atom_site_type_symbol
  _atom_site_label
  _atom_site_symmetry_multiplicity
  _atom_site_fract_x
  _atom_site_fract_y
  _atom_site_fract_z
  _atom_site_occupancy
  C   C1        1.0  0.07655  0.12302  0.47047  1.0000
  C   C2        1.0  0.28542  0.09449  0.42737  1.0000
  C   C3        1.0  0.25727  0.04649  0.43520  1.0000
  C   C4        1.0  0.01613  0.02587  0.49402  1.0000
  C   C5        1.0  0.80674  0.05595  0.54666  1.0000
  C   C6        1.0  0.83736  0.10374  0.53414  1.0000
  P   P1        1.0  0.11068  0.18403  0.50738  1.0000
  O   O1        1.0  0.29860  0.21243  0.33846  1.0000
  O   O2        1.0  0.82862  0.20816  0.50354  1.0000
  O   O3        1.0  0.22948  0.18504  0.67683  1.0000
  H   H1        1.0  0.61730  0.04399  0.60395  1.0000
  H   H2        1.0  0.67382  0.12568  0.58513  1.0000
  H   H3        1.0  0.47032  0.10968  0.39320  1.0000
  H   H4        1.0  0.42829  0.02671  0.39975  1.0000
  C   C7        1.0  0.92345  0.87698  0.52953  1.0000
  C   C8        1.0  0.71458  0.90551  0.57263  1.0000
  C   C9        1.0  0.74273  0.95351  0.56480  1.0000
  C   C10       1.0  0.98387  0.97413  0.50598  1.0000
  C   C11       1.0  0.19326  0.94405  0.45334  1.0000
  C   C12       1.0  0.16264  0.89626  0.46586  1.0000
  P   P2        1.0  0.88932  0.81597  0.49262  1.0000
  O   O4        1.0  0.70140  0.78757  0.66154  1.0000
  O   O5        1.0  0.17138  0.79184  0.49646  1.0000
  O   O6        1.0  0.77052  0.81496  0.32317  1.0000
  H   H5        1.0  0.38270  0.95601  0.39605  1.0000
  H   H6        1.0  0.32618  0.87432  0.41487  1.0000
  H   H7        1.0  0.52968  0.89032  0.60680  1.0000
  H   H8        1.0  0.57171  0.97329  0.60025  1.0000
  H   H9        1.0  0.11730  0.54399  0.60395  1.0000
  H   H10       1.0  0.17382  0.62568  0.58513  1.0000
  H   H11       1.0  0.97032  0.60968  0.39320  1.0000
  H   H12       1.0  0.92829  0.52671  0.39975  1.0000
  C   C13       1.0  0.57655  0.62302  0.47047  1.0000
  C   C14       1.0  0.78542  0.59449  0.42737  1.0000
  C   C15       1.0  0.75727  0.54649  0.43520  1.0000
  C   C16       1.0  0.51613  0.52587  0.49402  1.0000
  C   C17       1.0  0.30674  0.55595  0.54666  1.0000
  C   C18       1.0  0.33736  0.60374  0.53414  1.0000
  P   P3        1.0  0.61068  0.68403  0.50738  1.0000
  O   O7        1.0  0.79860  0.71243  0.33846  1.0000
  O   O8        1.0  0.32862  0.70816  0.50354  1.0000
  O   O9        1.0  0.72948  0.68504  0.67683  1.0000
  H   H13       1.0  0.88270  0.45601  0.39605  1.0000
  H   H14       1.0  0.82618  0.37432  0.41487  1.0000
  H   H15       1.0  0.02968  0.39032  0.60680  1.0000
  H   H16       1.0  0.07171  0.47329  0.60025  1.0000
  C   C19       1.0  0.42345  0.37698  0.52953  1.0000
  C   C20       1.0  0.21458  0.40551  0.57263  1.0000
  C   C21       1.0  0.24273  0.45351  0.56480  1.0000
  C   C22       1.0  0.48387  0.47413  0.50598  1.0000
  C   C23       1.0  0.69326  0.44405  0.45334  1.0000
  C   C24       1.0  0.66264  0.39626  0.46586  1.0000
  P   P4        1.0  0.38932  0.31597  0.49262  1.0000
  O   O10       1.0  0.20140  0.28757  0.66154  1.0000
  O   O11       1.0  0.67138  0.29184  0.49646  1.0000
  O   O12       1.0  0.27052  0.31496  0.32317  1.0000
  C   C25       1.0  0.92345  0.12302  0.02953  1.0000
  C   C26       1.0  0.71458  0.09449  0.07263  1.0000
  C   C27       1.0  0.74273  0.04649  0.06480  1.0000
  C   C28       1.0  0.98387  0.02587  0.00598  1.0000
  C   C29       1.0  0.19326  0.05595  0.95334  1.0000
  C   C30       1.0  0.16264  0.10374  0.96586  1.0000
  P   P5        1.0  0.88932  0.18403  0.99262  1.0000
  O   O13       1.0  0.70140  0.21243  0.16154  1.0000
  O   O14       1.0  0.17138  0.20816  0.99646  1.0000
  O   O15       1.0  0.77052  0.18504  0.82317  1.0000
  H   H17       1.0  0.38270  0.04399  0.89605  1.0000
  H   H18       1.0  0.32618  0.12568  0.91487  1.0000
  H   H19       1.0  0.52968  0.10968  0.10680  1.0000
  H   H20       1.0  0.57171  0.02671  0.10025  1.0000
  C   C31       1.0  0.07655  0.87698  0.97047  1.0000
  C   C32       1.0  0.28542  0.90551  0.92737  1.0000
  C   C33       1.0  0.25727  0.95351  0.93520  1.0000
  C   C34       1.0  0.01613  0.97413  0.99402  1.0000
  C   C35       1.0  0.80674  0.94405  0.04666  1.0000
  C   C36       1.0  0.83736  0.89626  0.03414  1.0000
  P   P6        1.0  0.11068  0.81597  0.00738  1.0000
  O   O16       1.0  0.29860  0.78757  0.83846  1.0000
  O   O17       1.0  0.82862  0.79184  0.00354  1.0000
  O   O18       1.0  0.22948  0.81496  0.17683  1.0000
  H   H21       1.0  0.61730  0.95601  0.10395  1.0000
  H   H22       1.0  0.67382  0.87432  0.08513  1.0000
  H   H23       1.0  0.47032  0.89032  0.89320  1.0000
  H   H24       1.0  0.42829  0.97329  0.89975  1.0000
  H   H25       1.0  0.88270  0.54399  0.89605  1.0000
  H   H26       1.0  0.82618  0.62568  0.91487  1.0000
  H   H27       1.0  0.02968  0.60968  0.10680  1.0000
  H   H28       1.0  0.07171  0.52671  0.10025  1.0000
  C   C37       1.0  0.42345  0.62302  0.02953  1.0000
  C   C38       1.0  0.21458  0.59449  0.07263  1.0000
  C   C39       1.0  0.24273  0.54649  0.06480  1.0000
  C   C40       1.0  0.48387  0.52587  0.00598  1.0000
  C   C41       1.0  0.69326  0.55595  0.95334  1.0000
  C   C42       1.0  0.66264  0.60374  0.96586  1.0000
  P   P7        1.0  0.38932  0.68403  0.99262  1.0000
  O   O19       1.0  0.20140  0.71243  0.16154  1.0000
  O   O20       1.0  0.67138  0.70816  0.99646  1.0000
  O   O21       1.0  0.27052  0.68504  0.82317  1.0000
  H   H29       1.0  0.11730  0.45601  0.10395  1.0000
  H   H30       1.0  0.17382  0.37432  0.08513  1.0000
  H   H31       1.0  0.97032  0.39032  0.89320  1.0000
  H   H32       1.0  0.92829  0.47329  0.89975  1.0000
  C   C43       1.0  0.57655  0.37698  0.97047  1.0000
  C   C44       1.0  0.78542  0.40551  0.92737  1.0000
  C   C45       1.0  0.75727  0.45351  0.93520  1.0000
  C   C46       1.0  0.51613  0.47413  0.99402  1.0000
  C   C47       1.0  0.30674  0.44405  0.04666  1.0000
  C   C48       1.0  0.33736  0.39626  0.03414  1.0000
  P   P8        1.0  0.61068  0.31597  0.00738  1.0000
  O   O22       1.0  0.79860  0.28757  0.83846  1.0000
  O   O23       1.0  0.32862  0.29184  0.00354  1.0000
  O   O24       1.0  0.72948  0.31496  0.17683  1.0000
  La  La1       1.0  0.00000  0.25721  0.25000  1.0000
  La  La2       1.0  0.50000  0.75721  0.25000  1.0000
  La  La3       1.0  0.00000  0.74279  0.75000  1.0000
  La  La4       1.0  0.50000  0.24279  0.75000  1.0000
