data_image0
_chemical_formula_structural       C6PO3H4C6PO3H8C6PO3H4C6PO3C6PO3H4C6PO3H8C6PO3H4C6PO3Sm4
_chemical_formula_sum              "C48 P8 O24 H32 Sm4"
_cell_length_a       5.5345
_cell_length_b       28.6932
_cell_length_c       8.2251
_cell_angle_alpha    90
_cell_angle_beta     71.0288
_cell_angle_gamma    90

_space_group_name_H-M_alt    "P 1"
_space_group_IT_number       1

loop_
  _space_group_symop_operation_xyz
  'x, y, z'

loop_
  _atom_site_type_symbol
  _atom_site_label
  _atom_site_symmetry_multiplicity
  _atom_site_fract_x
  _atom_site_fract_y
  _atom_site_fract_z
  _atom_site_occupancy
  C   C1        1.0  0.53682  0.37477  0.97244  1.0000
  C   C2        1.0  0.75571  0.40194  0.92440  1.0000
  C   C3        1.0  0.74229  0.45038  0.93221  1.0000
  C   C4        1.0  0.50639  0.47365  0.99428  1.0000
  C   C5        1.0  0.28514  0.44521  0.05064  1.0000
  C   C6        1.0  0.30107  0.39651  0.04115  1.0000
  P   P1        1.0  0.57453  0.31253  0.00607  1.0000
  O   O1        1.0  0.73958  0.31296  0.16123  1.0000
  O   O2        1.0  0.30672  0.28025  0.99689  1.0000
  O   O3        1.0  0.77097  0.29116  0.81795  1.0000
  H   H1        1.0  0.09779  0.45941  0.10770  1.0000
  H   H2        1.0  0.13117  0.37575  0.09606  1.0000
  H   H3        1.0  0.93894  0.38507  0.89054  1.0000
  H   H4        1.0  0.92064  0.46864  0.89526  1.0000
  C   C7        1.0  0.46318  0.62523  0.02756  1.0000
  C   C8        1.0  0.24429  0.59806  0.07560  1.0000
  C   C9        1.0  0.25771  0.54962  0.06779  1.0000
  C   C10       1.0  0.49361  0.52635  0.00572  1.0000
  C   C11       1.0  0.71486  0.55479  0.94936  1.0000
  C   C12       1.0  0.69893  0.60349  0.95885  1.0000
  P   P2        1.0  0.42547  0.68747  0.99393  1.0000
  O   O4        1.0  0.26042  0.68704  0.83877  1.0000
  O   O5        1.0  0.69328  0.71975  0.00311  1.0000
  O   O6        1.0  0.22903  0.70884  0.18205  1.0000
  H   H5        1.0  0.90221  0.54059  0.89230  1.0000
  H   H6        1.0  0.86883  0.62425  0.90394  1.0000
  H   H7        1.0  0.06106  0.61493  0.10946  1.0000
  H   H8        1.0  0.07936  0.53136  0.10474  1.0000
  H   H9        1.0  0.90221  0.45941  0.39230  1.0000
  H   H10       1.0  0.86883  0.37575  0.40394  1.0000
  H   H11       1.0  0.06106  0.38507  0.60946  1.0000
  H   H12       1.0  0.07936  0.46864  0.60474  1.0000
  C   C13       1.0  0.46318  0.37477  0.52756  1.0000
  C   C14       1.0  0.24429  0.40194  0.57560  1.0000
  C   C15       1.0  0.25771  0.45038  0.56779  1.0000
  C   C16       1.0  0.49361  0.47365  0.50572  1.0000
  C   C17       1.0  0.71486  0.44521  0.44936  1.0000
  C   C18       1.0  0.69893  0.39651  0.45885  1.0000
  P   P3        1.0  0.42547  0.31253  0.49393  1.0000
  O   O7        1.0  0.26042  0.31296  0.33877  1.0000
  O   O8        1.0  0.69328  0.28025  0.50311  1.0000
  O   O9        1.0  0.22903  0.29116  0.68205  1.0000
  H   H13       1.0  0.09779  0.54059  0.60770  1.0000
  H   H14       1.0  0.13117  0.62425  0.59606  1.0000
  H   H15       1.0  0.93894  0.61493  0.39054  1.0000
  H   H16       1.0  0.92064  0.53136  0.39526  1.0000
  C   C19       1.0  0.53682  0.62523  0.47244  1.0000
  C   C20       1.0  0.75571  0.59806  0.42440  1.0000
  C   C21       1.0  0.74229  0.54962  0.43221  1.0000
  C   C22       1.0  0.50639  0.52635  0.49428  1.0000
  C   C23       1.0  0.28514  0.55479  0.55064  1.0000
  C   C24       1.0  0.30107  0.60349  0.54115  1.0000
  P   P4        1.0  0.57453  0.68747  0.50607  1.0000
  O   O10       1.0  0.73958  0.68704  0.66123  1.0000
  O   O11       1.0  0.30672  0.71975  0.49689  1.0000
  O   O12       1.0  0.77097  0.70884  0.31795  1.0000
  C   C25       1.0  0.03682  0.87477  0.97244  1.0000
  C   C26       1.0  0.25571  0.90194  0.92440  1.0000
  C   C27       1.0  0.24229  0.95038  0.93221  1.0000
  C   C28       1.0  0.00639  0.97365  0.99428  1.0000
  C   C29       1.0  0.78514  0.94521  0.05064  1.0000
  C   C30       1.0  0.80107  0.89651  0.04115  1.0000
  P   P5        1.0  0.07453  0.81253  0.00607  1.0000
  O   O13       1.0  0.23958  0.81296  0.16123  1.0000
  O   O14       1.0  0.80672  0.78025  0.99689  1.0000
  O   O15       1.0  0.27097  0.79116  0.81795  1.0000
  H   H17       1.0  0.59779  0.95941  0.10770  1.0000
  H   H18       1.0  0.63117  0.87575  0.09606  1.0000
  H   H19       1.0  0.43894  0.88507  0.89054  1.0000
  H   H20       1.0  0.42064  0.96864  0.89526  1.0000
  C   C31       1.0  0.96318  0.12523  0.02756  1.0000
  C   C32       1.0  0.74429  0.09806  0.07560  1.0000
  C   C33       1.0  0.75771  0.04962  0.06779  1.0000
  C   C34       1.0  0.99361  0.02635  0.00572  1.0000
  C   C35       1.0  0.21486  0.05479  0.94936  1.0000
  C   C36       1.0  0.19893  0.10349  0.95885  1.0000
  P   P6        1.0  0.92547  0.18747  0.99393  1.0000
  O   O16       1.0  0.76042  0.18704  0.83877  1.0000
  O   O17       1.0  0.19328  0.21975  0.00311  1.0000
  O   O18       1.0  0.72903  0.20884  0.18205  1.0000
  H   H21       1.0  0.40221  0.04059  0.89230  1.0000
  H   H22       1.0  0.36883  0.12425  0.90394  1.0000
  H   H23       1.0  0.56106  0.11493  0.10946  1.0000
  H   H24       1.0  0.57936  0.03136  0.10474  1.0000
  H   H25       1.0  0.40221  0.95941  0.39230  1.0000
  H   H26       1.0  0.36883  0.87575  0.40394  1.0000
  H   H27       1.0  0.56106  0.88507  0.60946  1.0000
  H   H28       1.0  0.57936  0.96864  0.60474  1.0000
  C   C37       1.0  0.96318  0.87477  0.52756  1.0000
  C   C38       1.0  0.74429  0.90194  0.57560  1.0000
  C   C39       1.0  0.75771  0.95038  0.56779  1.0000
  C   C40       1.0  0.99361  0.97365  0.50572  1.0000
  C   C41       1.0  0.21486  0.94521  0.44936  1.0000
  C   C42       1.0  0.19893  0.89651  0.45885  1.0000
  P   P7        1.0  0.92547  0.81253  0.49393  1.0000
  O   O19       1.0  0.76042  0.81296  0.33877  1.0000
  O   O20       1.0  0.19328  0.78025  0.50311  1.0000
  O   O21       1.0  0.72903  0.79116  0.68205  1.0000
  H   H29       1.0  0.59779  0.04059  0.60770  1.0000
  H   H30       1.0  0.63117  0.12425  0.59606  1.0000
  H   H31       1.0  0.43894  0.11493  0.39054  1.0000
  H   H32       1.0  0.42064  0.03136  0.39526  1.0000
  C   C43       1.0  0.03682  0.12523  0.47244  1.0000
  C   C44       1.0  0.25571  0.09806  0.42440  1.0000
  C   C45       1.0  0.24229  0.04962  0.43221  1.0000
  C   C46       1.0  0.00639  0.02635  0.49428  1.0000
  C   C47       1.0  0.78514  0.05479  0.55064  1.0000
  C   C48       1.0  0.80107  0.10349  0.54115  1.0000
  P   P8        1.0  0.07453  0.18747  0.50607  1.0000
  O   O22       1.0  0.23958  0.18704  0.66123  1.0000
  O   O23       1.0  0.80672  0.21975  0.49689  1.0000
  O   O24       1.0  0.27097  0.20884  0.31795  1.0000
  Sm  Sm1       1.0  0.00000  0.26042  0.25000  1.0000
  Sm  Sm2       1.0  0.50000  0.76042  0.25000  1.0000
  Sm  Sm3       1.0  0.00000  0.73958  0.75000  1.0000
  Sm  Sm4       1.0  0.50000  0.23958  0.75000  1.0000
