data_image0
_chemical_formula_structural       C6PO3H4C6PO3H4C6PO3H4C6PO3H4C6PO3H4C6PO3H4C6PO3H4C6PO3H4Gd4
_chemical_formula_sum              "C48 P8 O24 H32 Gd4"
_cell_length_a       5.4942
_cell_length_b       28.6622
_cell_length_c       8.1723
_cell_angle_alpha    90
_cell_angle_beta     71.165
_cell_angle_gamma    90

_space_group_name_H-M_alt    "P 1"
_space_group_IT_number       1

loop_
  _space_group_symop_operation_xyz
  'x, y, z'

loop_
  _atom_site_type_symbol
  _atom_site_label
  _atom_site_symmetry_multiplicity
  _atom_site_fract_x
  _atom_site_fract_y
  _atom_site_fract_z
  _atom_site_occupancy
  C   C1        1.0  0.53272  0.37449  0.47302  1.0000
  C   C2        1.0  0.75350  0.40155  0.42400  1.0000
  C   C3        1.0  0.74159  0.45005  0.43164  1.0000
  C   C4        1.0  0.50537  0.47360  0.49436  1.0000
  C   C5        1.0  0.28205  0.44531  0.55164  1.0000
  C   C6        1.0  0.29651  0.39650  0.54279  1.0000
  P   P1        1.0  0.57191  0.31221  0.50755  1.0000
  O   O1        1.0  0.74504  0.31314  0.65991  1.0000
  O   O2        1.0  0.30677  0.27845  0.49828  1.0000
  O   O3        1.0  0.76893  0.29141  0.31749  1.0000
  H   H1        1.0  0.09427  0.45976  0.60873  1.0000
  H   H2        1.0  0.12538  0.37587  0.59869  1.0000
  H   H3        1.0  0.93729  0.38448  0.39021  1.0000
  H   H4        1.0  0.92135  0.46819  0.39437  1.0000
  C   C7        1.0  0.46728  0.62551  0.52698  1.0000
  C   C8        1.0  0.24650  0.59845  0.57600  1.0000
  C   C9        1.0  0.25841  0.54995  0.56836  1.0000
  C   C10       1.0  0.49463  0.52640  0.50564  1.0000
  C   C11       1.0  0.71795  0.55469  0.44836  1.0000
  C   C12       1.0  0.70349  0.60350  0.45721  1.0000
  P   P2        1.0  0.42809  0.68779  0.49245  1.0000
  O   O4        1.0  0.25496  0.68686  0.34009  1.0000
  O   O5        1.0  0.69323  0.72155  0.50172  1.0000
  O   O6        1.0  0.23107  0.70859  0.68251  1.0000
  H   H5        1.0  0.90573  0.54024  0.39127  1.0000
  H   H6        1.0  0.87462  0.62413  0.40131  1.0000
  H   H7        1.0  0.06271  0.61552  0.60979  1.0000
  H   H8        1.0  0.07865  0.53181  0.60563  1.0000
  C   C13       1.0  0.03272  0.87449  0.47302  1.0000
  C   C14       1.0  0.25350  0.90155  0.42400  1.0000
  C   C15       1.0  0.24159  0.95005  0.43164  1.0000
  C   C16       1.0  0.00537  0.97360  0.49436  1.0000
  C   C17       1.0  0.78205  0.94531  0.55164  1.0000
  C   C18       1.0  0.79651  0.89650  0.54279  1.0000
  P   P3        1.0  0.07191  0.81221  0.50755  1.0000
  O   O7        1.0  0.24504  0.81314  0.65991  1.0000
  O   O8        1.0  0.80677  0.77845  0.49828  1.0000
  O   O9        1.0  0.26893  0.79141  0.31749  1.0000
  H   H9        1.0  0.59427  0.95976  0.60873  1.0000
  H   H10       1.0  0.62538  0.87587  0.59869  1.0000
  H   H11       1.0  0.43729  0.88448  0.39021  1.0000
  H   H12       1.0  0.42135  0.96819  0.39437  1.0000
  C   C19       1.0  0.96728  0.12551  0.52698  1.0000
  C   C20       1.0  0.74650  0.09845  0.57600  1.0000
  C   C21       1.0  0.75841  0.04995  0.56836  1.0000
  C   C22       1.0  0.99463  0.02640  0.50564  1.0000
  C   C23       1.0  0.21795  0.05469  0.44836  1.0000
  C   C24       1.0  0.20349  0.10350  0.45721  1.0000
  P   P4        1.0  0.92809  0.18779  0.49245  1.0000
  O   O10       1.0  0.75496  0.18686  0.34009  1.0000
  O   O11       1.0  0.19323  0.22155  0.50172  1.0000
  O   O12       1.0  0.73107  0.20859  0.68251  1.0000
  H   H13       1.0  0.40573  0.04024  0.39127  1.0000
  H   H14       1.0  0.37462  0.12413  0.40131  1.0000
  H   H15       1.0  0.56271  0.11552  0.60979  1.0000
  H   H16       1.0  0.57865  0.03181  0.60563  1.0000
  C   C25       1.0  0.46728  0.37449  0.02698  1.0000
  C   C26       1.0  0.24650  0.40155  0.07600  1.0000
  C   C27       1.0  0.25841  0.45005  0.06836  1.0000
  C   C28       1.0  0.49463  0.47360  0.00564  1.0000
  C   C29       1.0  0.71795  0.44531  0.94836  1.0000
  C   C30       1.0  0.70349  0.39650  0.95721  1.0000
  P   P5        1.0  0.42809  0.31221  0.99245  1.0000
  O   O13       1.0  0.25496  0.31314  0.84009  1.0000
  O   O14       1.0  0.69323  0.27845  0.00172  1.0000
  O   O15       1.0  0.23107  0.29141  0.18251  1.0000
  H   H17       1.0  0.90573  0.45976  0.89127  1.0000
  H   H18       1.0  0.87462  0.37587  0.90131  1.0000
  H   H19       1.0  0.06271  0.38448  0.10979  1.0000
  H   H20       1.0  0.07865  0.46819  0.10563  1.0000
  C   C31       1.0  0.53272  0.62551  0.97302  1.0000
  C   C32       1.0  0.75350  0.59845  0.92400  1.0000
  C   C33       1.0  0.74159  0.54995  0.93164  1.0000
  C   C34       1.0  0.50537  0.52640  0.99436  1.0000
  C   C35       1.0  0.28205  0.55469  0.05164  1.0000
  C   C36       1.0  0.29651  0.60350  0.04279  1.0000
  P   P6        1.0  0.57191  0.68779  0.00755  1.0000
  O   O16       1.0  0.74504  0.68686  0.15991  1.0000
  O   O17       1.0  0.30677  0.72155  0.99828  1.0000
  O   O18       1.0  0.76893  0.70859  0.81749  1.0000
  H   H21       1.0  0.09427  0.54024  0.10873  1.0000
  H   H22       1.0  0.12538  0.62413  0.09869  1.0000
  H   H23       1.0  0.93729  0.61552  0.89021  1.0000
  H   H24       1.0  0.92135  0.53181  0.89437  1.0000
  C   C37       1.0  0.96728  0.87449  0.02698  1.0000
  C   C38       1.0  0.74650  0.90155  0.07600  1.0000
  C   C39       1.0  0.75841  0.95005  0.06836  1.0000
  C   C40       1.0  0.99463  0.97360  0.00564  1.0000
  C   C41       1.0  0.21795  0.94531  0.94836  1.0000
  C   C42       1.0  0.20349  0.89650  0.95721  1.0000
  P   P7        1.0  0.92809  0.81221  0.99245  1.0000
  O   O19       1.0  0.75496  0.81314  0.84009  1.0000
  O   O20       1.0  0.19323  0.77845  0.00172  1.0000
  O   O21       1.0  0.73107  0.79141  0.18251  1.0000
  H   H25       1.0  0.40573  0.95976  0.89127  1.0000
  H   H26       1.0  0.37462  0.87587  0.90131  1.0000
  H   H27       1.0  0.56271  0.88448  0.10979  1.0000
  H   H28       1.0  0.57865  0.96819  0.10563  1.0000
  C   C43       1.0  0.03272  0.12551  0.97302  1.0000
  C   C44       1.0  0.25350  0.09845  0.92400  1.0000
  C   C45       1.0  0.24159  0.04995  0.93164  1.0000
  C   C46       1.0  0.00537  0.02640  0.99436  1.0000
  C   C47       1.0  0.78205  0.05469  0.05164  1.0000
  C   C48       1.0  0.79651  0.10350  0.04279  1.0000
  P   P8        1.0  0.07191  0.18779  0.00755  1.0000
  O   O22       1.0  0.24504  0.18686  0.15991  1.0000
  O   O23       1.0  0.80677  0.22155  0.99828  1.0000
  O   O24       1.0  0.26893  0.20859  0.81749  1.0000
  H   H29       1.0  0.59427  0.04024  0.10873  1.0000
  H   H30       1.0  0.62538  0.12413  0.09869  1.0000
  H   H31       1.0  0.43729  0.11552  0.89021  1.0000
  H   H32       1.0  0.42135  0.03181  0.89437  1.0000
  Gd  Gd1       1.0  0.00000  0.26032  0.75000  1.0000
  Gd  Gd2       1.0  0.50000  0.76032  0.75000  1.0000
  Gd  Gd3       1.0  0.00000  0.73968  0.25000  1.0000
  Gd  Gd4       1.0  0.50000  0.23968  0.25000  1.0000
