data_YUJVOQ01_FSR
_audit_creation_date              2024-06-11
_audit_creation_method            'Materials Studio'
_symmetry_space_group_name_H-M    'P1'
_symmetry_Int_Tables_number       1
_symmetry_cell_setting            triclinic
loop_
_symmetry_equiv_pos_as_xyz
  x,y,z
_cell_length_a                    16.1265
_cell_length_b                    16.6649
_cell_length_c                    15.4756
_cell_angle_alpha                 90.0000
_cell_angle_beta                  91.1610
_cell_angle_gamma                 90.0000
loop_
_atom_site_label
_atom_site_type_symbol
_atom_site_fract_x
_atom_site_fract_y
_atom_site_fract_z
_atom_site_U_iso_or_equiv
_atom_site_adp_type
_atom_site_occupancy
Li1    Li    0.80520   0.04740   0.11660   0.03564  Uani   1.00
Li2    Li    0.19570   0.44910   0.13260   0.03502  Uani   1.00
C3     C     0.86246   0.62870   0.09285   0.04045  Uani   1.00
C4     C     0.86941   0.88249   0.11556   0.03638  Uani   1.00
C5     C     0.14672   0.86607   0.13672   0.03771  Uani   1.00
C6     C     0.12441   0.86101   0.03987   0.04002  Uani   1.00
C7     C     0.88011   0.86506   0.21250   0.03891  Uani   1.00
C8     C     0.08762   0.62732   0.24342   0.03704  Uani   1.00
C9     C     0.90602   0.63636   0.00559   0.03892  Uani   1.00
C10    C     0.12527   0.61418   0.15366   0.03718  Uani   1.00
O11    O     0.03605   0.68605   0.24649   0.03831  Uani   1.00
O12    O     0.96145   0.69108   0.00454   0.03818  Uani   1.00
O13    O     0.89700   0.67112   0.15255   0.04490  Uani   1.00
O14    O     0.09622   0.82703   0.18383   0.04196  Uani   1.00
O15    O     0.09820   0.66533   0.09766   0.04426  Uani   1.00
O16    O     0.06557   0.81132   0.02201   0.04142  Uani   1.00
O17    O     0.91135   0.83402   0.06856   0.04290  Uani   1.00
O18    O     0.93865   0.81494   0.23051   0.03967  Uani   1.00
O19    O     0.17502   0.56161   0.14061   0.05252  Uani   1.00
O20    O     0.80305   0.58534   0.09997   0.06094  Uani   1.00
O21    O     0.20591   0.90459   0.16391   0.05474  Uani   1.00
O22    O     0.82490   0.93578   0.08801   0.04950  Uani   1.00
O23    O     0.83346   0.89694   0.26260   0.06298  Uani   1.00
O24    O     0.16103   0.90307   0.98974   0.07054  Uani   1.00
O25    O     0.88860   0.59297   0.94447   0.06561  Uani   1.00
O26    O     0.10600   0.58451   0.30469   0.06125  Uani   1.00
Zr27   Zr    0.00045   0.75044   0.12631   0.02432  Uani   1.00
Li28   Li    0.30520   0.54740   0.61660   0.03564  Uani   1.00
Li29   Li    0.69570   0.94910   0.63260   0.03502  Uani   1.00
C30    C     0.36246   0.12870   0.59285   0.04045  Uani   1.00
C31    C     0.36941   0.38249   0.61556   0.03638  Uani   1.00
C32    C     0.64672   0.36607   0.63672   0.03771  Uani   1.00
C33    C     0.62441   0.36101   0.53987   0.04002  Uani   1.00
C34    C     0.38011   0.36506   0.71250   0.03891  Uani   1.00
C35    C     0.58762   0.12732   0.74342   0.03704  Uani   1.00
C36    C     0.40602   0.13636   0.50559   0.03892  Uani   1.00
C37    C     0.62527   0.11418   0.65366   0.03718  Uani   1.00
O38    O     0.53605   0.18605   0.74649   0.03831  Uani   1.00
O39    O     0.46145   0.19108   0.50454   0.03818  Uani   1.00
O40    O     0.39700   0.17112   0.65255   0.04490  Uani   1.00
O41    O     0.59622   0.32703   0.68383   0.04196  Uani   1.00
O42    O     0.59820   0.16533   0.59766   0.04426  Uani   1.00
O43    O     0.56557   0.31132   0.52201   0.04142  Uani   1.00
O44    O     0.41135   0.33402   0.56856   0.04290  Uani   1.00
O45    O     0.43865   0.31494   0.73051   0.03967  Uani   1.00
O46    O     0.67502   0.06161   0.64061   0.05252  Uani   1.00
O47    O     0.30305   0.08534   0.59997   0.06094  Uani   1.00
O48    O     0.70591   0.40459   0.66391   0.05474  Uani   1.00
O49    O     0.32490   0.43578   0.58801   0.04950  Uani   1.00
O50    O     0.33346   0.39694   0.76260   0.06298  Uani   1.00
O51    O     0.66103   0.40307   0.48974   0.07054  Uani   1.00
O52    O     0.38860   0.09297   0.44447   0.06561  Uani   1.00
O53    O     0.60600   0.08451   0.80469   0.06125  Uani   1.00
Zr54   Zr    0.50045   0.25044   0.62631   0.02432  Uani   1.00
Li55   Li    0.69480   0.04740   0.88340   0.03564  Uani   1.00
Li56   Li    0.30430   0.44910   0.86740   0.03502  Uani   1.00
C57    C     0.63754   0.62870   0.90715   0.04045  Uani   1.00
C58    C     0.63059   0.88249   0.88444   0.03638  Uani   1.00
C59    C     0.35328   0.86607   0.86328   0.03771  Uani   1.00
C60    C     0.37559   0.86101   0.96013   0.04002  Uani   1.00
C61    C     0.61989   0.86506   0.78750   0.03891  Uani   1.00
C62    C     0.41238   0.62732   0.75658   0.03704  Uani   1.00
C63    C     0.59398   0.63636   0.99441   0.03892  Uani   1.00
C64    C     0.37473   0.61418   0.84634   0.03718  Uani   1.00
O65    O     0.46395   0.68605   0.75351   0.03831  Uani   1.00
O66    O     0.53855   0.69108   0.99546   0.03818  Uani   1.00
O67    O     0.60300   0.67112   0.84745   0.04490  Uani   1.00
O68    O     0.40378   0.82703   0.81617   0.04196  Uani   1.00
O69    O     0.40180   0.66533   0.90234   0.04426  Uani   1.00
O70    O     0.43443   0.81132   0.97799   0.04142  Uani   1.00
O71    O     0.58865   0.83402   0.93144   0.04290  Uani   1.00
O72    O     0.56135   0.81494   0.76949   0.03967  Uani   1.00
O73    O     0.32498   0.56161   0.85939   0.05252  Uani   1.00
O74    O     0.69695   0.58534   0.90003   0.06094  Uani   1.00
O75    O     0.29409   0.90459   0.83609   0.05474  Uani   1.00
O76    O     0.67510   0.93578   0.91199   0.04950  Uani   1.00
O77    O     0.66654   0.89694   0.73740   0.06298  Uani   1.00
O78    O     0.33897   0.90307   0.01026   0.07054  Uani   1.00
O79    O     0.61140   0.59297   0.05553   0.06561  Uani   1.00
O80    O     0.39400   0.58451   0.69531   0.06125  Uani   1.00
Zr81   Zr    0.49955   0.75044   0.87369   0.02432  Uani   1.00
Li82   Li    0.19480   0.54740   0.38340   0.03564  Uani   1.00
Li83   Li    0.80430   0.94910   0.36740   0.03502  Uani   1.00
C84    C     0.13754   0.12870   0.40715   0.04045  Uani   1.00
C85    C     0.13059   0.38249   0.38444   0.03638  Uani   1.00
C86    C     0.85328   0.36607   0.36328   0.03771  Uani   1.00
C87    C     0.87559   0.36101   0.46013   0.04002  Uani   1.00
C88    C     0.11989   0.36506   0.28750   0.03891  Uani   1.00
C89    C     0.91238   0.12732   0.25658   0.03704  Uani   1.00
C90    C     0.09398   0.13636   0.49441   0.03892  Uani   1.00
C91    C     0.87473   0.11418   0.34634   0.03718  Uani   1.00
O92    O     0.96395   0.18605   0.25351   0.03831  Uani   1.00
O93    O     0.03855   0.19108   0.49546   0.03818  Uani   1.00
O94    O     0.10300   0.17112   0.34745   0.04490  Uani   1.00
O95    O     0.90378   0.32703   0.31617   0.04196  Uani   1.00
O96    O     0.90180   0.16533   0.40234   0.04426  Uani   1.00
O97    O     0.93443   0.31132   0.47799   0.04142  Uani   1.00
O98    O     0.08865   0.33402   0.43144   0.04290  Uani   1.00
O99    O     0.06135   0.31494   0.26949   0.03967  Uani   1.00
O100   O     0.82498   0.06161   0.35939   0.05252  Uani   1.00
O101   O     0.19695   0.08534   0.40003   0.06094  Uani   1.00
O102   O     0.79409   0.40459   0.33609   0.05474  Uani   1.00
O103   O     0.17510   0.43578   0.41199   0.04950  Uani   1.00
O104   O     0.16654   0.39694   0.23740   0.06298  Uani   1.00
O105   O     0.83897   0.40307   0.51026   0.07054  Uani   1.00
O106   O     0.11140   0.09297   0.55553   0.06561  Uani   1.00
O107   O     0.89400   0.08451   0.19531   0.06125  Uani   1.00
Zr108  Zr    0.99955   0.25044   0.37369   0.02432  Uani   1.00
Li109  Li    0.19480   0.95260   0.88340   0.03564  Uani   1.00
Li110  Li    0.80430   0.55090   0.86740   0.03502  Uani   1.00
C111   C     0.13754   0.37130   0.90715   0.04045  Uani   1.00
C112   C     0.13059   0.11751   0.88444   0.03638  Uani   1.00
C113   C     0.85328   0.13393   0.86328   0.03771  Uani   1.00
C114   C     0.87559   0.13899   0.96013   0.04002  Uani   1.00
C115   C     0.11989   0.13494   0.78750   0.03891  Uani   1.00
C116   C     0.91238   0.37268   0.75658   0.03704  Uani   1.00
C117   C     0.09398   0.36364   0.99441   0.03892  Uani   1.00
C118   C     0.87473   0.38582   0.84634   0.03718  Uani   1.00
O119   O     0.96395   0.31395   0.75351   0.03831  Uani   1.00
O120   O     0.03855   0.30892   0.99546   0.03818  Uani   1.00
O121   O     0.10300   0.32888   0.84745   0.04490  Uani   1.00
O122   O     0.90378   0.17297   0.81617   0.04196  Uani   1.00
O123   O     0.90180   0.33467   0.90234   0.04426  Uani   1.00
O124   O     0.93443   0.18868   0.97799   0.04142  Uani   1.00
O125   O     0.08865   0.16598   0.93144   0.04290  Uani   1.00
O126   O     0.06135   0.18506   0.76949   0.03967  Uani   1.00
O127   O     0.82498   0.43839   0.85939   0.05252  Uani   1.00
O128   O     0.19695   0.41466   0.90003   0.06094  Uani   1.00
O129   O     0.79409   0.09541   0.83609   0.05474  Uani   1.00
O130   O     0.17510   0.06422   0.91199   0.04950  Uani   1.00
O131   O     0.16654   0.10306   0.73740   0.06298  Uani   1.00
O132   O     0.83897   0.09693   0.01026   0.07054  Uani   1.00
O133   O     0.11140   0.40703   0.05553   0.06561  Uani   1.00
O134   O     0.89400   0.41549   0.69531   0.06125  Uani   1.00
Zr135  Zr    0.99955   0.24956   0.87369   0.02432  Uani   1.00
Li136  Li    0.69480   0.45260   0.38340   0.03564  Uani   1.00
Li137  Li    0.30430   0.05090   0.36740   0.03502  Uani   1.00
C138   C     0.63754   0.87130   0.40715   0.04045  Uani   1.00
C139   C     0.63059   0.61751   0.38444   0.03638  Uani   1.00
C140   C     0.35328   0.63393   0.36328   0.03771  Uani   1.00
C141   C     0.37559   0.63899   0.46013   0.04002  Uani   1.00
C142   C     0.61989   0.63494   0.28750   0.03891  Uani   1.00
C143   C     0.41238   0.87268   0.25658   0.03704  Uani   1.00
C144   C     0.59398   0.86364   0.49441   0.03892  Uani   1.00
C145   C     0.37473   0.88582   0.34634   0.03718  Uani   1.00
O146   O     0.46395   0.81395   0.25351   0.03831  Uani   1.00
O147   O     0.53855   0.80892   0.49546   0.03818  Uani   1.00
O148   O     0.60300   0.82888   0.34745   0.04490  Uani   1.00
O149   O     0.40378   0.67297   0.31617   0.04196  Uani   1.00
O150   O     0.40180   0.83467   0.40234   0.04426  Uani   1.00
O151   O     0.43443   0.68868   0.47799   0.04142  Uani   1.00
O152   O     0.58865   0.66598   0.43144   0.04290  Uani   1.00
O153   O     0.56135   0.68506   0.26949   0.03967  Uani   1.00
O154   O     0.32498   0.93839   0.35939   0.05252  Uani   1.00
O155   O     0.69695   0.91466   0.40003   0.06094  Uani   1.00
O156   O     0.29409   0.59541   0.33609   0.05474  Uani   1.00
O157   O     0.67510   0.56422   0.41199   0.04950  Uani   1.00
O158   O     0.66654   0.60306   0.23740   0.06298  Uani   1.00
O159   O     0.33897   0.59693   0.51026   0.07054  Uani   1.00
O160   O     0.61140   0.90703   0.55553   0.06561  Uani   1.00
O161   O     0.39400   0.91549   0.19531   0.06125  Uani   1.00
Zr162  Zr    0.49955   0.74956   0.37369   0.02432  Uani   1.00
Li163  Li    0.30520   0.95260   0.11660   0.03564  Uani   1.00
Li164  Li    0.69570   0.55090   0.13260   0.03502  Uani   1.00
C165   C     0.36246   0.37130   0.09285   0.04045  Uani   1.00
C166   C     0.36941   0.11751   0.11556   0.03638  Uani   1.00
C167   C     0.64672   0.13393   0.13672   0.03771  Uani   1.00
C168   C     0.62441   0.13899   0.03987   0.04002  Uani   1.00
C169   C     0.38011   0.13494   0.21250   0.03891  Uani   1.00
C170   C     0.58762   0.37268   0.24342   0.03704  Uani   1.00
C171   C     0.40602   0.36364   0.00559   0.03892  Uani   1.00
C172   C     0.62527   0.38582   0.15366   0.03718  Uani   1.00
O173   O     0.53605   0.31395   0.24649   0.03831  Uani   1.00
O174   O     0.46145   0.30892   0.00454   0.03818  Uani   1.00
O175   O     0.39700   0.32888   0.15255   0.04490  Uani   1.00
O176   O     0.59622   0.17297   0.18383   0.04196  Uani   1.00
O177   O     0.59820   0.33467   0.09766   0.04426  Uani   1.00
O178   O     0.56557   0.18868   0.02201   0.04142  Uani   1.00
O179   O     0.41135   0.16598   0.06856   0.04290  Uani   1.00
O180   O     0.43865   0.18506   0.23051   0.03967  Uani   1.00
O181   O     0.67502   0.43839   0.14061   0.05252  Uani   1.00
O182   O     0.30305   0.41466   0.09997   0.06094  Uani   1.00
O183   O     0.70591   0.09541   0.16391   0.05474  Uani   1.00
O184   O     0.32490   0.06422   0.08801   0.04950  Uani   1.00
O185   O     0.33346   0.10306   0.26260   0.06298  Uani   1.00
O186   O     0.66103   0.09693   0.98974   0.07054  Uani   1.00
O187   O     0.38860   0.40703   0.94447   0.06561  Uani   1.00
O188   O     0.60600   0.41549   0.30469   0.06125  Uani   1.00
Zr189  Zr    0.50045   0.24956   0.12631   0.02432  Uani   1.00
Li190  Li    0.80520   0.45260   0.61660   0.03564  Uani   1.00
Li191  Li    0.19570   0.05090   0.63260   0.03502  Uani   1.00
C192   C     0.86246   0.87130   0.59285   0.04045  Uani   1.00
C193   C     0.86941   0.61751   0.61556   0.03638  Uani   1.00
C194   C     0.14672   0.63393   0.63672   0.03771  Uani   1.00
C195   C     0.12441   0.63899   0.53987   0.04002  Uani   1.00
C196   C     0.88011   0.63494   0.71250   0.03891  Uani   1.00
C197   C     0.08762   0.87268   0.74342   0.03704  Uani   1.00
C198   C     0.90602   0.86364   0.50559   0.03892  Uani   1.00
C199   C     0.12527   0.88582   0.65366   0.03718  Uani   1.00
O200   O     0.03605   0.81395   0.74649   0.03831  Uani   1.00
O201   O     0.96145   0.80892   0.50454   0.03818  Uani   1.00
O202   O     0.89700   0.82888   0.65255   0.04490  Uani   1.00
O203   O     0.09622   0.67297   0.68383   0.04196  Uani   1.00
O204   O     0.09820   0.83467   0.59766   0.04426  Uani   1.00
O205   O     0.06557   0.68868   0.52201   0.04142  Uani   1.00
O206   O     0.91135   0.66598   0.56856   0.04290  Uani   1.00
O207   O     0.93865   0.68506   0.73051   0.03967  Uani   1.00
O208   O     0.17502   0.93839   0.64061   0.05252  Uani   1.00
O209   O     0.80305   0.91466   0.59997   0.06094  Uani   1.00
O210   O     0.20591   0.59541   0.66391   0.05474  Uani   1.00
O211   O     0.82490   0.56422   0.58801   0.04950  Uani   1.00
O212   O     0.83346   0.60306   0.76260   0.06298  Uani   1.00
O213   O     0.16103   0.59693   0.48974   0.07054  Uani   1.00
O214   O     0.88860   0.90703   0.44447   0.06561  Uani   1.00
O215   O     0.10600   0.91549   0.80469   0.06125  Uani   1.00
Zr216  Zr    0.00045   0.74956   0.62631   0.02432  Uani   1.00
loop_
_atom_site_aniso_label
_atom_site_aniso_U_11
_atom_site_aniso_U_22
_atom_site_aniso_U_33
_atom_site_aniso_U_12
_atom_site_aniso_U_13
_atom_site_aniso_U_23
Li1       0.03740   0.03000   0.03970   0.00100   0.00540  -0.00070
Li2       0.03410   0.03440   0.03670  -0.00400   0.00390  -0.00450
C3        0.03060   0.03460   0.05610  -0.00570  -0.00060  -0.00020
C4        0.03530   0.02630   0.04760   0.00190   0.00240  -0.00380
C5        0.03420   0.03130   0.04790  -0.00520   0.00730  -0.00020
C6        0.03610   0.03790   0.04630  -0.00410   0.00660   0.01400
C7        0.03970   0.03470   0.04260   0.00190   0.00780  -0.01140
C8        0.03260   0.03590   0.04240  -0.00270  -0.00490   0.00650
C9        0.03800   0.03590   0.04250  -0.00300  -0.00790  -0.00520
C10       0.03290   0.02950   0.04910   0.00180  -0.00040  -0.00240
O11       0.04120   0.04300   0.03090   0.00700   0.00460   0.00790
O12       0.04210   0.04180   0.03070  -0.00690   0.00240  -0.00670
O13       0.04400   0.05050   0.04060  -0.02030   0.01090  -0.00350
O14       0.04280   0.04740   0.03580  -0.01930   0.00400  -0.00290
O15       0.04950   0.04680   0.03680   0.01820   0.00850   0.00080
O16       0.04250   0.04980   0.03210  -0.00920   0.00440   0.01100
O17       0.05160   0.04130   0.03590   0.01800   0.00320   0.00050
O18       0.04260   0.04530   0.03130   0.00670   0.00530  -0.00780
O19       0.04870   0.03530   0.07370   0.01070   0.00440  -0.00350
O20       0.04370   0.05500   0.08450  -0.01970   0.01080  -0.00600
O21       0.04840   0.05490   0.06110  -0.02350   0.00550  -0.00410
O22       0.05210   0.03530   0.06100   0.01160  -0.00120  -0.00110
O23       0.06650   0.07150   0.05150   0.02350   0.01490  -0.01780
O24       0.07070   0.08060   0.06050  -0.02940   0.00570   0.03280
O25       0.06900   0.06980   0.05760  -0.01870  -0.00940  -0.02510
O26       0.06320   0.06610   0.05410   0.01510  -0.00750   0.02420
Zr27      0.02617   0.02472   0.02218  -0.00142   0.00353  -0.00002
Li28      0.03740   0.03000   0.03970   0.00100   0.00540  -0.00070
Li29      0.03410   0.03440   0.03670  -0.00400   0.00390  -0.00450
C30       0.03060   0.03460   0.05610  -0.00570  -0.00060  -0.00020
C31       0.03530   0.02630   0.04760   0.00190   0.00240  -0.00380
C32       0.03420   0.03130   0.04790  -0.00520   0.00730  -0.00020
C33       0.03610   0.03790   0.04630  -0.00410   0.00660   0.01400
C34       0.03970   0.03470   0.04260   0.00190   0.00780  -0.01140
C35       0.03260   0.03590   0.04240  -0.00270  -0.00490   0.00650
C36       0.03800   0.03590   0.04250  -0.00300  -0.00790  -0.00520
C37       0.03290   0.02950   0.04910   0.00180  -0.00040  -0.00240
O38       0.04120   0.04300   0.03090   0.00700   0.00460   0.00790
O39       0.04210   0.04180   0.03070  -0.00690   0.00240  -0.00670
O40       0.04400   0.05050   0.04060  -0.02030   0.01090  -0.00350
O41       0.04280   0.04740   0.03580  -0.01930   0.00400  -0.00290
O42       0.04950   0.04680   0.03680   0.01820   0.00850   0.00080
O43       0.04250   0.04980   0.03210  -0.00920   0.00440   0.01100
O44       0.05160   0.04130   0.03590   0.01800   0.00320   0.00050
O45       0.04260   0.04530   0.03130   0.00670   0.00530  -0.00780
O46       0.04870   0.03530   0.07370   0.01070   0.00440  -0.00350
O47       0.04370   0.05500   0.08450  -0.01970   0.01080  -0.00600
O48       0.04840   0.05490   0.06110  -0.02350   0.00550  -0.00410
O49       0.05210   0.03530   0.06100   0.01160  -0.00120  -0.00110
O50       0.06650   0.07150   0.05150   0.02350   0.01490  -0.01780
O51       0.07070   0.08060   0.06050  -0.02940   0.00570   0.03280
O52       0.06900   0.06980   0.05760  -0.01870  -0.00940  -0.02510
O53       0.06320   0.06610   0.05410   0.01510  -0.00750   0.02420
Zr54      0.02617   0.02472   0.02218  -0.00142   0.00353  -0.00002
Li55      0.03740   0.03000   0.03970  -0.00100   0.00540   0.00070
Li56      0.03410   0.03440   0.03670   0.00400   0.00390   0.00450
C57       0.03060   0.03460   0.05610   0.00570  -0.00060   0.00020
C58       0.03530   0.02630   0.04760  -0.00190   0.00240   0.00380
C59       0.03420   0.03130   0.04790   0.00520   0.00730   0.00020
C60       0.03610   0.03790   0.04630   0.00410   0.00660  -0.01400
C61       0.03970   0.03470   0.04260  -0.00190   0.00780   0.01140
C62       0.03260   0.03590   0.04240   0.00270  -0.00490  -0.00650
C63       0.03800   0.03590   0.04250   0.00300  -0.00790   0.00520
C64       0.03290   0.02950   0.04910  -0.00180  -0.00040   0.00240
O65       0.04120   0.04300   0.03090  -0.00700   0.00460  -0.00790
O66       0.04210   0.04180   0.03070   0.00690   0.00240   0.00670
O67       0.04400   0.05050   0.04060   0.02030   0.01090   0.00350
O68       0.04280   0.04740   0.03580   0.01930   0.00400   0.00290
O69       0.04950   0.04680   0.03680  -0.01820   0.00850  -0.00080
O70       0.04250   0.04980   0.03210   0.00920   0.00440  -0.01100
O71       0.05160   0.04130   0.03590  -0.01800   0.00320  -0.00050
O72       0.04260   0.04530   0.03130  -0.00670   0.00530   0.00780
O73       0.04870   0.03530   0.07370  -0.01070   0.00440   0.00350
O74       0.04370   0.05500   0.08450   0.01970   0.01080   0.00600
O75       0.04840   0.05490   0.06110   0.02350   0.00550   0.00410
O76       0.05210   0.03530   0.06100  -0.01160  -0.00120   0.00110
O77       0.06650   0.07150   0.05150  -0.02350   0.01490   0.01780
O78       0.07070   0.08060   0.06050   0.02940   0.00570  -0.03280
O79       0.06900   0.06980   0.05760   0.01870  -0.00940   0.02510
O80       0.06320   0.06610   0.05410  -0.01510  -0.00750  -0.02420
Zr81      0.02617   0.02472   0.02218   0.00142   0.00353   0.00002
Li82      0.03740   0.03000   0.03970  -0.00100   0.00540   0.00070
Li83      0.03410   0.03440   0.03670   0.00400   0.00390   0.00450
C84       0.03060   0.03460   0.05610   0.00570  -0.00060   0.00020
C85       0.03530   0.02630   0.04760  -0.00190   0.00240   0.00380
C86       0.03420   0.03130   0.04790   0.00520   0.00730   0.00020
C87       0.03610   0.03790   0.04630   0.00410   0.00660  -0.01400
C88       0.03970   0.03470   0.04260  -0.00190   0.00780   0.01140
C89       0.03260   0.03590   0.04240   0.00270  -0.00490  -0.00650
C90       0.03800   0.03590   0.04250   0.00300  -0.00790   0.00520
C91       0.03290   0.02950   0.04910  -0.00180  -0.00040   0.00240
O92       0.04120   0.04300   0.03090  -0.00700   0.00460  -0.00790
O93       0.04210   0.04180   0.03070   0.00690   0.00240   0.00670
O94       0.04400   0.05050   0.04060   0.02030   0.01090   0.00350
O95       0.04280   0.04740   0.03580   0.01930   0.00400   0.00290
O96       0.04950   0.04680   0.03680  -0.01820   0.00850  -0.00080
O97       0.04250   0.04980   0.03210   0.00920   0.00440  -0.01100
O98       0.05160   0.04130   0.03590  -0.01800   0.00320  -0.00050
O99       0.04260   0.04530   0.03130  -0.00670   0.00530   0.00780
O100      0.04870   0.03530   0.07370  -0.01070   0.00440   0.00350
O101      0.04370   0.05500   0.08450   0.01970   0.01080   0.00600
O102      0.04840   0.05490   0.06110   0.02350   0.00550   0.00410
O103      0.05210   0.03530   0.06100  -0.01160  -0.00120   0.00110
O104      0.06650   0.07150   0.05150  -0.02350   0.01490   0.01780
O105      0.07070   0.08060   0.06050   0.02940   0.00570  -0.03280
O106      0.06900   0.06980   0.05760   0.01870  -0.00940   0.02510
O107      0.06320   0.06610   0.05410  -0.01510  -0.00750  -0.02420
Zr108     0.02617   0.02472   0.02218   0.00142   0.00353   0.00002
Li109     0.03740   0.03000   0.03970   0.00100   0.00540  -0.00070
Li110     0.03410   0.03440   0.03670  -0.00400   0.00390  -0.00450
C111      0.03060   0.03460   0.05610  -0.00570  -0.00060  -0.00020
C112      0.03530   0.02630   0.04760   0.00190   0.00240  -0.00380
C113      0.03420   0.03130   0.04790  -0.00520   0.00730  -0.00020
C114      0.03610   0.03790   0.04630  -0.00410   0.00660   0.01400
C115      0.03970   0.03470   0.04260   0.00190   0.00780  -0.01140
C116      0.03260   0.03590   0.04240  -0.00270  -0.00490   0.00650
C117      0.03800   0.03590   0.04250  -0.00300  -0.00790  -0.00520
C118      0.03290   0.02950   0.04910   0.00180  -0.00040  -0.00240
O119      0.04120   0.04300   0.03090   0.00700   0.00460   0.00790
O120      0.04210   0.04180   0.03070  -0.00690   0.00240  -0.00670
O121      0.04400   0.05050   0.04060  -0.02030   0.01090  -0.00350
O122      0.04280   0.04740   0.03580  -0.01930   0.00400  -0.00290
O123      0.04950   0.04680   0.03680   0.01820   0.00850   0.00080
O124      0.04250   0.04980   0.03210  -0.00920   0.00440   0.01100
O125      0.05160   0.04130   0.03590   0.01800   0.00320   0.00050
O126      0.04260   0.04530   0.03130   0.00670   0.00530  -0.00780
O127      0.04870   0.03530   0.07370   0.01070   0.00440  -0.00350
O128      0.04370   0.05500   0.08450  -0.01970   0.01080  -0.00600
O129      0.04840   0.05490   0.06110  -0.02350   0.00550  -0.00410
O130      0.05210   0.03530   0.06100   0.01160  -0.00120  -0.00110
O131      0.06650   0.07150   0.05150   0.02350   0.01490  -0.01780
O132      0.07070   0.08060   0.06050  -0.02940   0.00570   0.03280
O133      0.06900   0.06980   0.05760  -0.01870  -0.00940  -0.02510
O134      0.06320   0.06610   0.05410   0.01510  -0.00750   0.02420
Zr135     0.02617   0.02472   0.02218  -0.00142   0.00353  -0.00002
Li136     0.03740   0.03000   0.03970   0.00100   0.00540  -0.00070
Li137     0.03410   0.03440   0.03670  -0.00400   0.00390  -0.00450
C138      0.03060   0.03460   0.05610  -0.00570  -0.00060  -0.00020
C139      0.03530   0.02630   0.04760   0.00190   0.00240  -0.00380
C140      0.03420   0.03130   0.04790  -0.00520   0.00730  -0.00020
C141      0.03610   0.03790   0.04630  -0.00410   0.00660   0.01400
C142      0.03970   0.03470   0.04260   0.00190   0.00780  -0.01140
C143      0.03260   0.03590   0.04240  -0.00270  -0.00490   0.00650
C144      0.03800   0.03590   0.04250  -0.00300  -0.00790  -0.00520
C145      0.03290   0.02950   0.04910   0.00180  -0.00040  -0.00240
O146      0.04120   0.04300   0.03090   0.00700   0.00460   0.00790
O147      0.04210   0.04180   0.03070  -0.00690   0.00240  -0.00670
O148      0.04400   0.05050   0.04060  -0.02030   0.01090  -0.00350
O149      0.04280   0.04740   0.03580  -0.01930   0.00400  -0.00290
O150      0.04950   0.04680   0.03680   0.01820   0.00850   0.00080
O151      0.04250   0.04980   0.03210  -0.00920   0.00440   0.01100
O152      0.05160   0.04130   0.03590   0.01800   0.00320   0.00050
O153      0.04260   0.04530   0.03130   0.00670   0.00530  -0.00780
O154      0.04870   0.03530   0.07370   0.01070   0.00440  -0.00350
O155      0.04370   0.05500   0.08450  -0.01970   0.01080  -0.00600
O156      0.04840   0.05490   0.06110  -0.02350   0.00550  -0.00410
O157      0.05210   0.03530   0.06100   0.01160  -0.00120  -0.00110
O158      0.06650   0.07150   0.05150   0.02350   0.01490  -0.01780
O159      0.07070   0.08060   0.06050  -0.02940   0.00570   0.03280
O160      0.06900   0.06980   0.05760  -0.01870  -0.00940  -0.02510
O161      0.06320   0.06610   0.05410   0.01510  -0.00750   0.02420
Zr162     0.02617   0.02472   0.02218  -0.00142   0.00353  -0.00002
Li163     0.03740   0.03000   0.03970  -0.00100   0.00540   0.00070
Li164     0.03410   0.03440   0.03670   0.00400   0.00390   0.00450
C165      0.03060   0.03460   0.05610   0.00570  -0.00060   0.00020
C166      0.03530   0.02630   0.04760  -0.00190   0.00240   0.00380
C167      0.03420   0.03130   0.04790   0.00520   0.00730   0.00020
C168      0.03610   0.03790   0.04630   0.00410   0.00660  -0.01400
C169      0.03970   0.03470   0.04260  -0.00190   0.00780   0.01140
C170      0.03260   0.03590   0.04240   0.00270  -0.00490  -0.00650
C171      0.03800   0.03590   0.04250   0.00300  -0.00790   0.00520
C172      0.03290   0.02950   0.04910  -0.00180  -0.00040   0.00240
O173      0.04120   0.04300   0.03090  -0.00700   0.00460  -0.00790
O174      0.04210   0.04180   0.03070   0.00690   0.00240   0.00670
O175      0.04400   0.05050   0.04060   0.02030   0.01090   0.00350
O176      0.04280   0.04740   0.03580   0.01930   0.00400   0.00290
O177      0.04950   0.04680   0.03680  -0.01820   0.00850  -0.00080
O178      0.04250   0.04980   0.03210   0.00920   0.00440  -0.01100
O179      0.05160   0.04130   0.03590  -0.01800   0.00320  -0.00050
O180      0.04260   0.04530   0.03130  -0.00670   0.00530   0.00780
O181      0.04870   0.03530   0.07370  -0.01070   0.00440   0.00350
O182      0.04370   0.05500   0.08450   0.01970   0.01080   0.00600
O183      0.04840   0.05490   0.06110   0.02350   0.00550   0.00410
O184      0.05210   0.03530   0.06100  -0.01160  -0.00120   0.00110
O185      0.06650   0.07150   0.05150  -0.02350   0.01490   0.01780
O186      0.07070   0.08060   0.06050   0.02940   0.00570  -0.03280
O187      0.06900   0.06980   0.05760   0.01870  -0.00940   0.02510
O188      0.06320   0.06610   0.05410  -0.01510  -0.00750  -0.02420
Zr189     0.02617   0.02472   0.02218   0.00142   0.00353   0.00002
Li190     0.03740   0.03000   0.03970  -0.00100   0.00540   0.00070
Li191     0.03410   0.03440   0.03670   0.00400   0.00390   0.00450
C192      0.03060   0.03460   0.05610   0.00570  -0.00060   0.00020
C193      0.03530   0.02630   0.04760  -0.00190   0.00240   0.00380
C194      0.03420   0.03130   0.04790   0.00520   0.00730   0.00020
C195      0.03610   0.03790   0.04630   0.00410   0.00660  -0.01400
C196      0.03970   0.03470   0.04260  -0.00190   0.00780   0.01140
C197      0.03260   0.03590   0.04240   0.00270  -0.00490  -0.00650
C198      0.03800   0.03590   0.04250   0.00300  -0.00790   0.00520
C199      0.03290   0.02950   0.04910  -0.00180  -0.00040   0.00240
O200      0.04120   0.04300   0.03090  -0.00700   0.00460  -0.00790
O201      0.04210   0.04180   0.03070   0.00690   0.00240   0.00670
O202      0.04400   0.05050   0.04060   0.02030   0.01090   0.00350
O203      0.04280   0.04740   0.03580   0.01930   0.00400   0.00290
O204      0.04950   0.04680   0.03680  -0.01820   0.00850  -0.00080
O205      0.04250   0.04980   0.03210   0.00920   0.00440  -0.01100
O206      0.05160   0.04130   0.03590  -0.01800   0.00320  -0.00050
O207      0.04260   0.04530   0.03130  -0.00670   0.00530   0.00780
O208      0.04870   0.03530   0.07370  -0.01070   0.00440   0.00350
O209      0.04370   0.05500   0.08450   0.01970   0.01080   0.00600
O210      0.04840   0.05490   0.06110   0.02350   0.00550   0.00410
O211      0.05210   0.03530   0.06100  -0.01160  -0.00120   0.00110
O212      0.06650   0.07150   0.05150  -0.02350   0.01490   0.01780
O213      0.07070   0.08060   0.06050   0.02940   0.00570  -0.03280
O214      0.06900   0.06980   0.05760   0.01870  -0.00940   0.02510
O215      0.06320   0.06610   0.05410  -0.01510  -0.00750  -0.02420
Zr216     0.02617   0.02472   0.02218   0.00142   0.00353   0.00002
loop_
_geom_bond_atom_site_label_1
_geom_bond_atom_site_label_2
_geom_bond_distance
_geom_bond_site_symmetry_2
_ccdc_geom_bond_type
Li1    O22     1.940   1_545 S
Li1    O183    1.946   .     S
Li1    O132    1.929   .     S
Li1    O107    1.961   .     S
Li2    O19     1.909   .     S
Li2    O182    1.902   .     S
Li2    O104    1.907   .     S
Li2    O133    1.923   .     S
C3     C9      1.540   .     S
C3     O13     1.282   .     S
C3     O20     1.207   .     S
C4     C7      1.534   .     S
C4     O17     1.288   .     S
C4     O22     1.214   .     S
C5     C6      1.537   .     S
C5     O14     1.281   .     S
C5     O21     1.218   .     S
C6     O16     1.285   .     S
C6     O24     1.208   1_554 S
C7     O18     1.287   .     S
C7     O23     1.214   .     S
C8     C10     1.543   .     S
C8     O11     1.286   .     S
C8     O26     1.218   .     S
C9     O12     1.277   .     S
C9     O25     1.219   1_554 S
C10    O15     1.286   .     S
C10    O19     1.208   .     S
O11    Zr27    2.213   .     S
O12    Zr27    2.208   1_655 S
O13    Zr27    2.173   1_655 S
O14    Zr27    2.180   .     S
O15    Zr27    2.173   .     S
O16    Zr27    2.192   .     S
O17    Zr27    2.180   1_655 S
O18    Zr27    2.194   1_655 S
O20    Li164   1.902   .     S
O21    Li163   1.946   .     S
O22    Li1     1.940   1_565 S
O23    Li83    1.907   .     S
O24    C6      1.208   1_556 S
O24    Li109   1.929   .     S
O25    C9      1.219   1_556 S
O25    Li110   1.923   .     S
O26    Li82    1.961   .     S
Zr27   O12     2.208   1_455 S
Zr27   O18     2.194   1_455 S
Zr27   O13     2.173   1_455 S
Zr27   O17     2.180   1_455 S
Li28   O49     1.940   .     S
Li28   O210    1.946   .     S
Li28   O159    1.929   .     S
Li28   O80     1.961   .     S
Li29   O46     1.909   1_565 S
Li29   O209    1.902   .     S
Li29   O77     1.907   .     S
Li29   O160    1.923   .     S
C30    C36     1.540   .     S
C30    O40     1.282   .     S
C30    O47     1.207   .     S
C31    C34     1.534   .     S
C31    O44     1.288   .     S
C31    O49     1.214   .     S
C32    C33     1.537   .     S
C32    O41     1.281   .     S
C32    O48     1.218   .     S
C33    O43     1.285   .     S
C33    O51     1.208   .     S
C34    O45     1.287   .     S
C34    O50     1.214   .     S
C35    C37     1.543   .     S
C35    O38     1.286   .     S
C35    O53     1.218   .     S
C36    O39     1.277   .     S
C36    O52     1.219   .     S
C37    O42     1.286   .     S
C37    O46     1.208   .     S
O38    Zr54    2.213   .     S
O39    Zr54    2.208   .     S
O40    Zr54    2.173   .     S
O41    Zr54    2.180   .     S
O42    Zr54    2.173   .     S
O43    Zr54    2.192   .     S
O44    Zr54    2.180   .     S
O45    Zr54    2.194   .     S
O46    Li29    1.909   1_545 S
O47    Li191   1.902   .     S
O48    Li190   1.946   .     S
O50    Li56    1.907   .     S
O51    Li136   1.929   .     S
O52    Li137   1.923   .     S
O53    Li55    1.961   .     S
Li55   O76     1.940   1_545 S
Li55   O129    1.946   .     S
Li55   O186    1.929   .     S
Li56   O73     1.909   .     S
Li56   O128    1.902   .     S
Li56   O187    1.923   .     S
C57    C63     1.540   .     S
C57    O67     1.282   .     S
C57    O74     1.207   .     S
C58    C61     1.534   .     S
C58    O71     1.288   .     S
C58    O76     1.214   .     S
C59    C60     1.537   .     S
C59    O68     1.281   .     S
C59    O75     1.218   .     S
C60    O70     1.285   .     S
C60    O78     1.208   1_556 S
C61    O72     1.287   .     S
C61    O77     1.214   .     S
C62    C64     1.543   .     S
C62    O65     1.286   .     S
C62    O80     1.218   .     S
C63    O66     1.277   .     S
C63    O79     1.219   1_556 S
C64    O69     1.286   .     S
C64    O73     1.208   .     S
O65    Zr81    2.213   .     S
O66    Zr81    2.208   .     S
O67    Zr81    2.173   .     S
O68    Zr81    2.180   .     S
O69    Zr81    2.173   .     S
O70    Zr81    2.192   .     S
O71    Zr81    2.180   .     S
O72    Zr81    2.194   .     S
O74    Li110   1.902   .     S
O75    Li109   1.946   .     S
O76    Li55    1.940   1_565 S
O78    C60     1.208   1_554 S
O78    Li163   1.929   .     S
O79    C63     1.219   1_554 S
O79    Li164   1.923   .     S
Li82   O103    1.940   .     S
Li82   O156    1.946   .     S
Li82   O213    1.929   .     S
Li83   O100    1.909   1_565 S
Li83   O155    1.902   .     S
Li83   O214    1.923   .     S
C84    C90     1.540   .     S
C84    O94     1.282   .     S
C84    O101    1.207   .     S
C85    C88     1.534   .     S
C85    O98     1.288   .     S
C85    O103    1.214   .     S
C86    C87     1.537   .     S
C86    O95     1.281   .     S
C86    O102    1.218   .     S
C87    O97     1.285   .     S
C87    O105    1.208   .     S
C88    O99     1.287   .     S
C88    O104    1.214   .     S
C89    C91     1.543   .     S
C89    O92     1.286   .     S
C89    O107    1.218   .     S
C90    O93     1.277   .     S
C90    O106    1.219   .     S
C91    O96     1.286   .     S
C91    O100    1.208   .     S
O92    Zr108   2.213   .     S
O93    Zr108   2.208   1_455 S
O94    Zr108   2.173   1_455 S
O95    Zr108   2.180   .     S
O96    Zr108   2.173   .     S
O97    Zr108   2.192   .     S
O98    Zr108   2.180   1_455 S
O99    Zr108   2.194   1_455 S
O100   Li83    1.909   1_545 S
O101   Li137   1.902   .     S
O102   Li136   1.946   .     S
O105   Li190   1.929   .     S
O106   Li191   1.923   .     S
Zr108  O93     2.208   1_655 S
Zr108  O99     2.194   1_655 S
Zr108  O94     2.173   1_655 S
Zr108  O98     2.180   1_655 S
Li109  O130    1.940   1_565 S
Li109  O215    1.961   .     S
Li110  O127    1.909   .     S
Li110  O212    1.907   .     S
C111   C117    1.540   .     S
C111   O121    1.282   .     S
C111   O128    1.207   .     S
C112   C115    1.534   .     S
C112   O125    1.288   .     S
C112   O130    1.214   .     S
C113   C114    1.537   .     S
C113   O122    1.281   .     S
C113   O129    1.218   .     S
C114   O124    1.285   .     S
C114   O132    1.208   1_556 S
C115   O126    1.287   .     S
C115   O131    1.214   .     S
C116   C118    1.543   .     S
C116   O119    1.286   .     S
C116   O134    1.218   .     S
C117   O120    1.277   .     S
C117   O133    1.219   1_556 S
C118   O123    1.286   .     S
C118   O127    1.208   .     S
O119   Zr135   2.213   .     S
O120   Zr135   2.208   1_455 S
O121   Zr135   2.173   1_455 S
O122   Zr135   2.180   .     S
O123   Zr135   2.173   .     S
O124   Zr135   2.192   .     S
O125   Zr135   2.180   1_455 S
O126   Zr135   2.194   1_455 S
O130   Li109   1.940   1_545 S
O131   Li191   1.907   .     S
O132   C114    1.208   1_554 S
O133   C117    1.219   1_554 S
O134   Li190   1.961   .     S
Zr135  O120    2.208   1_655 S
Zr135  O126    2.194   1_655 S
Zr135  O121    2.173   1_655 S
Zr135  O125    2.180   1_655 S
Li136  O157    1.940   .     S
Li136  O188    1.961   .     S
Li137  O154    1.909   1_545 S
Li137  O185    1.907   .     S
C138   C144    1.540   .     S
C138   O148    1.282   .     S
C138   O155    1.207   .     S
C139   C142    1.534   .     S
C139   O152    1.288   .     S
C139   O157    1.214   .     S
C140   C141    1.537   .     S
C140   O149    1.281   .     S
C140   O156    1.218   .     S
C141   O151    1.285   .     S
C141   O159    1.208   .     S
C142   O153    1.287   .     S
C142   O158    1.214   .     S
C143   C145    1.543   .     S
C143   O146    1.286   .     S
C143   O161    1.218   .     S
C144   O147    1.277   .     S
C144   O160    1.219   .     S
C145   O150    1.286   .     S
C145   O154    1.208   .     S
O146   Zr162   2.213   .     S
O147   Zr162   2.208   .     S
O148   Zr162   2.173   .     S
O149   Zr162   2.180   .     S
O150   Zr162   2.173   .     S
O151   Zr162   2.192   .     S
O152   Zr162   2.180   .     S
O153   Zr162   2.194   .     S
O154   Li137   1.909   1_565 S
O158   Li164   1.907   .     S
O161   Li163   1.961   .     S
Li163  O184    1.940   1_565 S
Li164  O181    1.909   .     S
C165   C171    1.540   .     S
C165   O175    1.282   .     S
C165   O182    1.207   .     S
C166   C169    1.534   .     S
C166   O179    1.288   .     S
C166   O184    1.214   .     S
C167   C168    1.537   .     S
C167   O176    1.281   .     S
C167   O183    1.218   .     S
C168   O178    1.285   .     S
C168   O186    1.208   1_554 S
C169   O180    1.287   .     S
C169   O185    1.214   .     S
C170   C172    1.543   .     S
C170   O173    1.286   .     S
C170   O188    1.218   .     S
C171   O174    1.277   .     S
C171   O187    1.219   1_554 S
C172   O177    1.286   .     S
C172   O181    1.208   .     S
O173   Zr189   2.213   .     S
O174   Zr189   2.208   .     S
O175   Zr189   2.173   .     S
O176   Zr189   2.180   .     S
O177   Zr189   2.173   .     S
O178   Zr189   2.192   .     S
O179   Zr189   2.180   .     S
O180   Zr189   2.194   .     S
O184   Li163   1.940   1_545 S
O186   C168    1.208   1_556 S
O187   C171    1.219   1_556 S
Li190  O211    1.940   .     S
Li191  O208    1.909   1_545 S
C192   C198    1.540   .     S
C192   O202    1.282   .     S
C192   O209    1.207   .     S
C193   C196    1.534   .     S
C193   O206    1.288   .     S
C193   O211    1.214   .     S
C194   C195    1.537   .     S
C194   O203    1.281   .     S
C194   O210    1.218   .     S
C195   O205    1.285   .     S
C195   O213    1.208   .     S
C196   O207    1.287   .     S
C196   O212    1.214   .     S
C197   C199    1.543   .     S
C197   O200    1.286   .     S
C197   O215    1.218   .     S
C198   O201    1.277   .     S
C198   O214    1.219   .     S
C199   O204    1.286   .     S
C199   O208    1.208   .     S
O200   Zr216   2.213   .     S
O201   Zr216   2.208   1_655 S
O202   Zr216   2.173   1_655 S
O203   Zr216   2.180   .     S
O204   Zr216   2.173   .     S
O205   Zr216   2.192   .     S
O206   Zr216   2.180   1_655 S
O207   Zr216   2.194   1_655 S
O208   Li191   1.909   1_565 S
Zr216  O201    2.208   1_455 S
Zr216  O207    2.194   1_455 S
Zr216  O202    2.173   1_455 S
Zr216  O206    2.180   1_455 S
