data_YULCIU_FSR
_audit_creation_date              2024-06-11
_audit_creation_method            'Materials Studio'
_symmetry_space_group_name_H-M    'P1'
_symmetry_Int_Tables_number       1
_symmetry_cell_setting            triclinic
loop_
_symmetry_equiv_pos_as_xyz
  x,y,z
_cell_length_a                    9.9645
_cell_length_b                    11.4007
_cell_length_c                    13.1307
_cell_angle_alpha                 99.5350
_cell_angle_beta                  97.1380
_cell_angle_gamma                 115.7320
loop_
_atom_site_label
_atom_site_type_symbol
_atom_site_fract_x
_atom_site_fract_y
_atom_site_fract_z
_atom_site_U_iso_or_equiv
_atom_site_adp_type
_atom_site_occupancy
Co1    Co    0.15377   0.06979   0.90337   0.00000  Uiso   1.00
O2     O     0.22910   0.13040   0.06130   0.00000  Uiso   1.00
O3     O     0.07360   0.01830   0.15720   0.00000  Uiso   1.00
O4     O     0.18930   0.05330   0.74320   0.00000  Uiso   1.00
O5     O     0.38880   0.14650   0.87430   0.00000  Uiso   1.00
N6     N     0.15130   0.88140   0.90680   0.00000  Uiso   1.00
N7     N     0.16040   0.26260   0.90650   0.00000  Uiso   1.00
N8     N     0.69520   0.21510   0.47450   0.00000  Uiso   1.00
H9     H     0.79060   0.23930   0.47760   0.00000  Uiso   1.00
C10    C     0.20230   0.09100   0.14370   0.00000  Uiso   1.00
C11    C     0.44380   0.15150   0.41070   0.00000  Uiso   1.00
C12    C     0.31780   0.11760   0.33220   0.00000  Uiso   1.00
H13    H     0.22120   0.08670   0.34710   0.00000  Uiso   1.00
C14    C     0.37250   0.12220   0.59250   0.00000  Uiso   1.00
H15    H     0.26830   0.09180   0.56910   0.00000  Uiso   1.00
C16    C     0.26880   0.87850   0.96520   0.00000  Uiso   1.00
H17    H     0.34920   0.95970   0.00530   0.00000  Uiso   1.00
C18    C     0.33200   0.11000   0.77570   0.00000  Uiso   1.00
C19    C     0.15930   0.63860   0.90950   0.00000  Uiso   1.00
C20    C     0.27810   0.76210   0.96970   0.00000  Uiso   1.00
H21    H     0.36230   0.76570   0.01230   0.00000  Uiso   1.00
C22    C     0.58820   0.17280   0.73070   0.00000  Uiso   1.00
H23    H     0.62710   0.17790   0.80040   0.00000  Uiso   1.00
C24    C     0.33680   0.13010   0.23100   0.00000  Uiso   1.00
C25    C     0.46760   0.15170   0.52250   0.00000  Uiso   1.00
C26    C     0.43310   0.13790   0.69920   0.00000  Uiso   1.00
C27    C     0.16090   0.50930   0.91010   0.00000  Uiso   1.00
C28    C     0.62440   0.19190   0.55730   0.00000  Uiso   1.00
C29    C     0.03920   0.76320   0.84720   0.00000  Uiso   1.00
H30    H    -0.04220   0.76320   0.80410   0.00000  Uiso   1.00
C31    C     0.48340   0.17740   0.20970   0.00000  Uiso   1.00
H32    H     0.49550   0.19000   0.14260   0.00000  Uiso   1.00
C33    C     0.59060   0.19380   0.38570   0.00000  Uiso   1.00
C34    C     0.03830   0.64270   0.84630   0.00000  Uiso   1.00
H35    H    -0.04260   0.56360   0.80380   0.00000  Uiso   1.00
C36    C     0.61090   0.20600   0.28510   0.00000  Uiso   1.00
H37    H     0.70630   0.23230   0.26860   0.00000  Uiso   1.00
C38    C     0.68560   0.20010   0.66080   0.00000  Uiso   1.00
H39    H     0.78810   0.22290   0.68250   0.00000  Uiso   1.00
C40    C     0.27420   0.49830   0.96680   0.00000  Uiso   1.00
H41    H     0.35860   0.57540   0.00860   0.00000  Uiso   1.00
C42    C     0.03950   0.39170   0.86340   0.00000  Uiso   1.00
H43    H    -0.05220   0.38880   0.83430   0.00000  Uiso   1.00
C44    C     0.04990   0.27260   0.85790   0.00000  Uiso   1.00
H45    H    -0.03140   0.19420   0.81490   0.00000  Uiso   1.00
C46    C     0.26800   0.37530   0.96430   0.00000  Uiso   1.00
H47    H     0.34780   0.37320   0.00760   0.00000  Uiso   1.00
Co48   Co   -0.15377   0.93021   0.09663   0.00000  Uiso   1.00
O49    O    -0.22910   0.86960   0.93870   0.00000  Uiso   1.00
O50    O    -0.07360   0.98170   0.84280   0.00000  Uiso   1.00
O51    O    -0.18930   0.94670   0.25680   0.00000  Uiso   1.00
O52    O    -0.38880   0.85350   0.12570   0.00000  Uiso   1.00
N53    N    -0.15130   0.11860   0.09320   0.00000  Uiso   1.00
N54    N    -0.16040   0.73740   0.09350   0.00000  Uiso   1.00
N55    N    -0.69520   0.78490   0.52550   0.00000  Uiso   1.00
H56    H    -0.79060   0.76070   0.52240   0.00000  Uiso   1.00
C57    C    -0.20230   0.90900   0.85630   0.00000  Uiso   1.00
C58    C    -0.44380   0.84850   0.58930   0.00000  Uiso   1.00
C59    C    -0.31780   0.88240   0.66780   0.00000  Uiso   1.00
H60    H    -0.22120   0.91330   0.65290   0.00000  Uiso   1.00
C61    C    -0.37250   0.87780   0.40750   0.00000  Uiso   1.00
H62    H    -0.26830   0.90820   0.43090   0.00000  Uiso   1.00
C63    C    -0.26880   0.12150   0.03480   0.00000  Uiso   1.00
H64    H    -0.34920   0.04030   0.99470   0.00000  Uiso   1.00
C65    C    -0.33200   0.89000   0.22430   0.00000  Uiso   1.00
C66    C    -0.15930   0.36140   0.09050   0.00000  Uiso   1.00
C67    C    -0.27810   0.23790   0.03030   0.00000  Uiso   1.00
H68    H    -0.36230   0.23430   0.98770   0.00000  Uiso   1.00
C69    C    -0.58820   0.82720   0.26930   0.00000  Uiso   1.00
H70    H    -0.62710   0.82210   0.19960   0.00000  Uiso   1.00
C71    C    -0.33680   0.86990   0.76900   0.00000  Uiso   1.00
C72    C    -0.46760   0.84830   0.47750   0.00000  Uiso   1.00
C73    C    -0.43310   0.86210   0.30080   0.00000  Uiso   1.00
C74    C    -0.16090   0.49070   0.08990   0.00000  Uiso   1.00
C75    C    -0.62440   0.80810   0.44270   0.00000  Uiso   1.00
C76    C    -0.03920   0.23680   0.15280   0.00000  Uiso   1.00
H77    H     0.04220   0.23680   0.19590   0.00000  Uiso   1.00
C78    C    -0.48340   0.82260   0.79030   0.00000  Uiso   1.00
H79    H    -0.49550   0.81000   0.85740   0.00000  Uiso   1.00
C80    C    -0.59060   0.80620   0.61430   0.00000  Uiso   1.00
C81    C    -0.03830   0.35730   0.15370   0.00000  Uiso   1.00
H82    H     0.04260   0.43640   0.19620   0.00000  Uiso   1.00
C83    C    -0.61090   0.79400   0.71490   0.00000  Uiso   1.00
H84    H    -0.70630   0.76770   0.73140   0.00000  Uiso   1.00
C85    C    -0.68560   0.79990   0.33920   0.00000  Uiso   1.00
H86    H    -0.78810   0.77710   0.31750   0.00000  Uiso   1.00
C87    C    -0.27420   0.50170   0.03320   0.00000  Uiso   1.00
H88    H    -0.35860   0.42460   0.99140   0.00000  Uiso   1.00
C89    C    -0.03950   0.60830   0.13660   0.00000  Uiso   1.00
H90    H     0.05220   0.61120   0.16570   0.00000  Uiso   1.00
C91    C    -0.04990   0.72740   0.14210   0.00000  Uiso   1.00
H92    H     0.03140   0.80580   0.18510   0.00000  Uiso   1.00
C93    C    -0.26800   0.62470   0.03570   0.00000  Uiso   1.00
H94    H    -0.34780   0.62680   0.99240   0.00000  Uiso   1.00
loop_
_geom_bond_atom_site_label_1
_geom_bond_atom_site_label_2
_geom_bond_distance
_geom_bond_site_symmetry_2
_ccdc_geom_bond_type
Co1    O4      2.167   .     S
Co1    O5      2.225   .     S
Co1    N6      2.145   1_545 S
Co1    O2      2.007   1_556 S
Co1    O50     2.021   1_545 S
Co1    N7      2.164   .     S
O2     C10     1.254   .     S
O2     Co1     2.007   1_554 S
O3     C10     1.243   .     S
O3     Co48    2.021   1_545 S
O4     C18     1.258   .     S
O5     C18     1.267   .     S
N6     Co1     2.145   1_565 S
N6     C16     1.334   .     S
N6     C29     1.343   .     S
N7     C44     1.261   .     S
N7     C46     1.286   .     S
N8     H9      0.860   .     S
N8     C28     1.369   .     S
N8     C33     1.375   .     S
C10    C24     1.496   .     S
C11    C12     1.383   .     S
C11    C25     1.457   .     S
C11    C33     1.428   .     S
C12    H13     0.930   .     S
C12    C24     1.387   .     S
C14    H15     0.930   .     S
C14    C26     1.404   .     S
C14    C25     1.378   .     S
C16    H17     0.930   1_556 S
C16    C20     1.380   .     S
H17    C16     0.930   1_554 S
C18    C26     1.485   .     S
C19    C20     1.400   .     S
C19    C27     1.482   .     S
C19    C34     1.399   .     S
C20    H21     0.930   1_556 S
H21    C20     0.930   1_554 S
C22    H23     0.931   .     S
C22    C38     1.391   .     S
C22    C26     1.404   .     S
C24    C31     1.404   .     S
C25    C28     1.411   .     S
C27    C40     1.338   .     S
C27    C42     1.331   .     S
C28    C38     1.389   .     S
C29    H30     0.930   .     S
C29    C34     1.368   .     S
C31    H32     0.930   .     S
C31    C36     1.386   .     S
C33    C36     1.381   .     S
C34    H35     0.930   .     S
C36    H37     0.930   .     S
C38    H39     0.930   .     S
C40    H41     0.930   1_556 S
C40    C46     1.371   .     S
H41    C40     0.930   1_554 S
C42    H43     0.930   .     S
C42    C44     1.397   .     S
C44    H45     0.930   .     S
C46    H47     0.930   1_556 S
H47    C46     0.930   1_554 S
Co48   O51     2.167   .     S
Co48   O52     2.225   .     S
Co48   N53     2.145   1_565 S
Co48   O49     2.007   1_554 S
Co48   O3      2.021   1_565 S
Co48   N54     2.164   .     S
O49    C57     1.254   .     S
O49    Co48    2.007   1_556 S
O50    C57     1.243   .     S
O50    Co1     2.021   1_565 S
O51    C65     1.258   .     S
O52    C65     1.267   .     S
N53    Co48    2.145   1_545 S
N53    C63     1.334   .     S
N53    C76     1.343   .     S
N54    C91     1.261   .     S
N54    C93     1.286   .     S
N55    H56     0.860   .     S
N55    C75     1.369   .     S
N55    C80     1.375   .     S
C57    C71     1.496   .     S
C58    C59     1.383   .     S
C58    C72     1.457   .     S
C58    C80     1.428   .     S
C59    H60     0.930   .     S
C59    C71     1.387   .     S
C61    H62     0.930   .     S
C61    C73     1.404   .     S
C61    C72     1.378   .     S
C63    H64     0.930   1_554 S
C63    C67     1.380   .     S
H64    C63     0.930   1_556 S
C65    C73     1.485   .     S
C66    C67     1.400   .     S
C66    C74     1.482   .     S
C66    C81     1.399   .     S
C67    H68     0.930   1_554 S
H68    C67     0.930   1_556 S
C69    H70     0.931   .     S
C69    C85     1.391   .     S
C69    C73     1.404   .     S
C71    C78     1.404   .     S
C72    C75     1.411   .     S
C74    C87     1.338   .     S
C74    C89     1.331   .     S
C75    C85     1.389   .     S
C76    H77     0.930   .     S
C76    C81     1.368   .     S
C78    H79     0.930   .     S
C78    C83     1.386   .     S
C80    C83     1.381   .     S
C81    H82     0.930   .     S
C83    H84     0.930   .     S
C85    H86     0.930   .     S
C87    H88     0.930   1_554 S
C87    C93     1.371   .     S
H88    C87     0.930   1_556 S
C89    H90     0.930   .     S
C89    C91     1.397   .     S
C91    H92     0.930   .     S
C93    H94     0.930   1_554 S
H94    C93     0.930   1_556 S
