data_YULCOA_FSR
_audit_creation_date              2024-06-11
_audit_creation_method            'Materials Studio'
_symmetry_space_group_name_H-M    'P1'
_symmetry_Int_Tables_number       1
_symmetry_cell_setting            triclinic
loop_
_symmetry_equiv_pos_as_xyz
  x,y,z
_cell_length_a                    9.9996
_cell_length_b                    11.1621
_cell_length_c                    13.1818
_cell_angle_alpha                 75.3510
_cell_angle_beta                  82.8730
_cell_angle_gamma                 64.8080
loop_
_atom_site_label
_atom_site_type_symbol
_atom_site_fract_x
_atom_site_fract_y
_atom_site_fract_z
_atom_site_U_iso_or_equiv
_atom_site_adp_type
_atom_site_occupancy
Zn1    Zn    0.57986   0.07196   0.09499   0.00000  Uiso   1.00
O2     O     0.60460   0.13550   0.93843   0.00000  Uiso   1.00
O3     O     0.55280   0.02440   0.84096   0.00000  Uiso   1.00
O4     O     0.73740   0.15520   0.12907   0.00000  Uiso   1.00
O5     O     0.62780   0.06130   0.25635   0.00000  Uiso   1.00
N6     N     0.76670   0.88380   0.08990   0.00000  Uiso   1.00
N7     N     0.39320   0.26470   0.09000   0.00000  Uiso   1.00
N8     N     0.98540   0.21030   0.52742   0.00000  Uiso   1.00
H9     H     0.05790   0.23340   0.52460   0.00000  Uiso   1.00
C10    C     0.61390   0.09450   0.85630   0.00000  Uiso   1.00
C11    C     0.77220   0.76470   0.14620   0.00000  Uiso   1.00
H12    H     0.68980   0.76370   0.18710   0.00000  Uiso   1.00
C13    C     0.01150   0.76480   0.02730   0.00000  Uiso   1.00
H14    H     0.09200   0.76860   0.98510   0.00000  Uiso   1.00
C15    C     0.79450   0.15350   0.58970   0.00000  Uiso   1.00
C16    C     0.69990   0.12170   0.66810   0.00000  Uiso   1.00
H17    H     0.63100   0.09350   0.65290   0.00000  Uiso   1.00
C18    C     0.71560   0.11820   0.22540   0.00000  Uiso   1.00
C19    C     0.81560   0.15370   0.47860   0.00000  Uiso   1.00
C20    C     0.71000   0.13270   0.76890   0.00000  Uiso   1.00
C21    C     0.74570   0.12860   0.40750   0.00000  Uiso   1.00
H22    H     0.66730   0.10360   0.42920   0.00000  Uiso   1.00
C23    C     0.88720   0.88180   0.03110   0.00000  Uiso   1.00
H24    H     0.88640   0.96360   0.99100   0.00000  Uiso   1.00
C25    C     0.01660   0.64180   0.08610   0.00000  Uiso   1.00
C26    C     0.91400   0.17380   0.27230   0.00000  Uiso   1.00
H27    H     0.94570   0.18070   0.20250   0.00000  Uiso   1.00
C28    C     0.14750   0.51260   0.08630   0.00000  Uiso   1.00
C29    C     0.81330   0.17460   0.79110   0.00000  Uiso   1.00
H30    H     0.81610   0.18460   0.85860   0.00000  Uiso   1.00
C31    C     0.79310   0.14080   0.30350   0.00000  Uiso   1.00
C32    C     0.93560   0.18860   0.44550   0.00000  Uiso   1.00
C33    C     0.90150   0.18960   0.61600   0.00000  Uiso   1.00
C34    C     0.89150   0.64370   0.14760   0.00000  Uiso   1.00
H35    H     0.88960   0.56340   0.18900   0.00000  Uiso   1.00
C36    C     0.91180   0.20190   0.71600   0.00000  Uiso   1.00
H37    H     0.98240   0.22750   0.73210   0.00000  Uiso   1.00
C38    C     0.98730   0.19640   0.34180   0.00000  Uiso   1.00
H39    H     0.06920   0.21630   0.32040   0.00000  Uiso   1.00
C40    C     0.38960   0.37950   0.03480   0.00000  Uiso   1.00
H41    H     0.47330   0.37840   0.99470   0.00000  Uiso   1.00
C42    C     0.14730   0.39230   0.13730   0.00000  Uiso   1.00
H43    H     0.06190   0.39010   0.17310   0.00000  Uiso   1.00
C44    C     0.27200   0.50290   0.03050   0.00000  Uiso   1.00
H45    H     0.27870   0.58090   0.98850   0.00000  Uiso   1.00
C46    C     0.26920   0.27210   0.13810   0.00000  Uiso   1.00
H47    H     0.26260   0.19190   0.17500   0.00000  Uiso   1.00
Zn48   Zn    0.42014   0.92804   0.90501   0.00000  Uiso   1.00
O49    O     0.39540   0.86450   0.06157   0.00000  Uiso   1.00
O50    O     0.44720   0.97560   0.15904   0.00000  Uiso   1.00
O51    O     0.26260   0.84480   0.87093   0.00000  Uiso   1.00
O52    O     0.37220   0.93870   0.74365   0.00000  Uiso   1.00
N53    N     0.23330   0.11620   0.91010   0.00000  Uiso   1.00
N54    N     0.60680   0.73530   0.91000   0.00000  Uiso   1.00
N55    N     0.01460   0.78970   0.47258   0.00000  Uiso   1.00
H56    H     0.94210   0.76660   0.47540   0.00000  Uiso   1.00
C57    C     0.38610   0.90550   0.14370   0.00000  Uiso   1.00
C58    C     0.22780   0.23530   0.85380   0.00000  Uiso   1.00
H59    H     0.31020   0.23630   0.81290   0.00000  Uiso   1.00
C60    C     0.98850   0.23520   0.97270   0.00000  Uiso   1.00
H61    H     0.90800   0.23140   0.01490   0.00000  Uiso   1.00
C62    C     0.20550   0.84650   0.41030   0.00000  Uiso   1.00
C63    C     0.30010   0.87830   0.33190   0.00000  Uiso   1.00
H64    H     0.36900   0.90650   0.34710   0.00000  Uiso   1.00
C65    C     0.28440   0.88180   0.77460   0.00000  Uiso   1.00
C66    C     0.18440   0.84630   0.52140   0.00000  Uiso   1.00
C67    C     0.29000   0.86730   0.23110   0.00000  Uiso   1.00
C68    C     0.25430   0.87140   0.59250   0.00000  Uiso   1.00
H69    H     0.33270   0.89640   0.57080   0.00000  Uiso   1.00
C70    C     0.11280   0.11820   0.96890   0.00000  Uiso   1.00
H71    H     0.11360   0.03640   0.00900   0.00000  Uiso   1.00
C72    C     0.98340   0.35820   0.91390   0.00000  Uiso   1.00
C73    C     0.08600   0.82620   0.72770   0.00000  Uiso   1.00
H74    H     0.05430   0.81930   0.79750   0.00000  Uiso   1.00
C75    C     0.85250   0.48740   0.91370   0.00000  Uiso   1.00
C76    C     0.18670   0.82540   0.20890   0.00000  Uiso   1.00
H77    H     0.18390   0.81540   0.14140   0.00000  Uiso   1.00
C78    C     0.20690   0.85920   0.69650   0.00000  Uiso   1.00
C79    C     0.06440   0.81140   0.55450   0.00000  Uiso   1.00
C80    C     0.09850   0.81040   0.38400   0.00000  Uiso   1.00
C81    C     0.10850   0.35630   0.85240   0.00000  Uiso   1.00
H82    H     0.11040   0.43660   0.81100   0.00000  Uiso   1.00
C83    C     0.08820   0.79810   0.28400   0.00000  Uiso   1.00
H84    H     0.01760   0.77250   0.26790   0.00000  Uiso   1.00
C85    C     0.01270   0.80360   0.65820   0.00000  Uiso   1.00
H86    H     0.93080   0.78370   0.67960   0.00000  Uiso   1.00
C87    C     0.61040   0.62050   0.96520   0.00000  Uiso   1.00
H88    H     0.52670   0.62160   0.00530   0.00000  Uiso   1.00
C89    C     0.85270   0.60770   0.86270   0.00000  Uiso   1.00
H90    H     0.93810   0.60990   0.82690   0.00000  Uiso   1.00
C91    C     0.72800   0.49710   0.96950   0.00000  Uiso   1.00
H92    H     0.72130   0.41910   0.01150   0.00000  Uiso   1.00
C93    C     0.73080   0.72790   0.86190   0.00000  Uiso   1.00
H94    H     0.73740   0.80810   0.82500   0.00000  Uiso   1.00
loop_
_geom_bond_atom_site_label_1
_geom_bond_atom_site_label_2
_geom_bond_distance
_geom_bond_site_symmetry_2
_ccdc_geom_bond_type
Zn1    O2      2.026   1_554 S
Zn1    N7      2.158   .     S
Zn1    O50     2.027   1_545 S
Zn1    O4      2.276   .     S
Zn1    O5      2.201   .     S
Zn1    N6      2.146   1_545 S
O2     Zn1     2.026   1_556 S
O2     C10     1.257   .     S
O3     C10     1.243   .     S
O3     Zn48    2.027   1_545 S
O4     C18     1.254   .     S
O5     C18     1.263   .     S
N6     C11     1.330   .     S
N6     C23     1.344   .     S
N6     Zn1     2.146   1_565 S
N7     C40     1.292   .     S
N7     C46     1.300   .     S
N8     H9      0.861   1_655 S
N8     C32     1.357   .     S
N8     C33     1.381   .     S
H9     N8      0.861   1_455 S
C10    C20     1.503   .     S
C11    H12     0.930   .     S
C11    C34     1.367   .     S
C13    H14     0.930   1_554 S
C13    C25     1.379   .     S
C13    C23     1.374   1_455 S
H14    C13     0.930   1_556 S
C15    C16     1.395   .     S
C15    C19     1.453   .     S
C15    C33     1.399   .     S
C16    H17     0.930   .     S
C16    C20     1.385   .     S
C18    C31     1.490   .     S
C19    C21     1.381   .     S
C19    C32     1.401   .     S
C20    C29     1.388   .     S
C21    H22     0.930   .     S
C21    C31     1.386   .     S
C23    H24     0.929   1_554 S
C23    C13     1.374   1_655 S
H24    C23     0.929   1_556 S
C25    C28     1.478   .     S
C25    C34     1.399   1_455 S
C26    H27     0.930   .     S
C26    C38     1.372   .     S
C26    C31     1.395   .     S
C28    C42     1.342   .     S
C28    C44     1.342   .     S
C29    H30     0.930   .     S
C29    C36     1.380   .     S
C32    C38     1.395   .     S
C33    C36     1.380   .     S
C34    H35     0.931   .     S
C34    C25     1.399   1_655 S
C36    H37     0.930   .     S
C38    H39     0.930   1_655 S
H39    C38     0.930   1_455 S
C40    H41     0.930   1_554 S
C40    C44     1.372   .     S
H41    C40     0.930   1_556 S
C42    H43     0.930   .     S
C42    C46     1.375   .     S
C44    H45     0.930   1_554 S
H45    C44     0.930   1_556 S
C46    H47     0.930   .     S
Zn48   O49     2.026   1_556 S
Zn48   N54     2.158   .     S
Zn48   O3      2.027   1_565 S
Zn48   O51     2.276   .     S
Zn48   O52     2.201   .     S
Zn48   N53     2.146   1_565 S
O49    Zn48    2.026   1_554 S
O49    C57     1.257   .     S
O50    C57     1.243   .     S
O50    Zn1     2.027   1_565 S
O51    C65     1.254   .     S
O52    C65     1.263   .     S
N53    C58     1.330   .     S
N53    C70     1.344   .     S
N53    Zn48    2.146   1_545 S
N54    C87     1.292   .     S
N54    C93     1.300   .     S
N55    H56     0.861   1_455 S
N55    C79     1.357   .     S
N55    C80     1.381   .     S
H56    N55     0.861   1_655 S
C57    C67     1.503   .     S
C58    H59     0.930   .     S
C58    C81     1.367   .     S
C60    H61     0.930   1_556 S
C60    C72     1.379   .     S
C60    C70     1.374   1_655 S
H61    C60     0.930   1_554 S
C62    C63     1.395   .     S
C62    C66     1.453   .     S
C62    C80     1.399   .     S
C63    H64     0.930   .     S
C63    C67     1.385   .     S
C65    C78     1.490   .     S
C66    C68     1.381   .     S
C66    C79     1.401   .     S
C67    C76     1.388   .     S
C68    H69     0.930   .     S
C68    C78     1.386   .     S
C70    H71     0.929   1_556 S
C70    C60     1.374   1_455 S
H71    C70     0.929   1_554 S
C72    C75     1.478   .     S
C72    C81     1.399   1_655 S
C73    H74     0.930   .     S
C73    C85     1.372   .     S
C73    C78     1.395   .     S
C75    C89     1.342   .     S
C75    C91     1.342   .     S
C76    H77     0.930   .     S
C76    C83     1.380   .     S
C79    C85     1.395   .     S
C80    C83     1.380   .     S
C81    H82     0.931   .     S
C81    C72     1.399   1_455 S
C83    H84     0.930   .     S
C85    H86     0.930   1_455 S
H86    C85     0.930   1_655 S
C87    H88     0.930   1_556 S
C87    C91     1.372   .     S
H88    C87     0.930   1_554 S
C89    H90     0.930   .     S
C89    C93     1.375   .     S
C91    H92     0.930   1_556 S
H92    C91     0.930   1_554 S
C93    H94     0.930   .     S
