data_ZULFOD_FSR
_audit_creation_date              2024-06-11
_audit_creation_method            'Materials Studio'
_symmetry_space_group_name_H-M    'P1'
_symmetry_Int_Tables_number       1
_symmetry_cell_setting            triclinic
loop_
_symmetry_equiv_pos_as_xyz
  x,y,z
_cell_length_a                    18.1621
_cell_length_b                    18.1621
_cell_length_c                    6.1680
_cell_angle_alpha                 90.0000
_cell_angle_beta                  90.0000
_cell_angle_gamma                 120.0000
loop_
_atom_site_label
_atom_site_type_symbol
_atom_site_fract_x
_atom_site_fract_y
_atom_site_fract_z
_atom_site_U_iso_or_equiv
_atom_site_adp_type
_atom_site_occupancy
Ni1    Ni   -0.23978  -0.17086   0.06333   0.00000  Uiso   1.00
P2     P    -0.24128  -0.22021   0.54040   0.00000  Uiso   1.00
C3     C    -0.33780  -0.29640   0.39890   0.00000  Uiso   1.00
H4     H    -0.32970  -0.34080   0.33590   0.00000  Uiso   1.00
H5     H    -0.38450  -0.32270   0.50120   0.00000  Uiso   1.00
C6     C    -0.43410  -0.31140   0.08800   0.00000  Uiso   1.00
H7     H    -0.41570  -0.34050   0.98640   0.00000  Uiso   1.00
C8     C    -0.46130  -0.25900   0.95650   0.00000  Uiso   1.00
H9     H    -0.47870  -0.22890   0.05220   0.00000  Uiso   1.00
H10    H    -0.50800  -0.29580   0.86430   0.00000  Uiso   1.00
H11    H    -0.41450  -0.21910   0.86910   0.00000  Uiso   1.00
C12    C    -0.50810  -0.37970   0.22050   0.00000  Uiso   1.00
C13    C    -0.53960  -0.35960   0.40400   0.00000  Uiso   1.00
H14    H    -0.51590  -0.30310   0.44580   0.00000  Uiso   1.00
C15    C    -0.60480  -0.42170   0.52400   0.00000  Uiso   1.00
H16    H    -0.62370  -0.40700   0.64790   0.00000  Uiso   1.00
C17    C    -0.64200  -0.50550   0.46200   0.00000  Uiso   1.00
H18    H    -0.68580  -0.54780   0.54340   0.00000  Uiso   1.00
C19    C    -0.61340  -0.52550   0.27720   0.00000  Uiso   1.00
H20    H    -0.63950  -0.58180   0.23170   0.00000  Uiso   1.00
C21    C    -0.54650  -0.46380   0.15730   0.00000  Uiso   1.00
H22    H    -0.52750  -0.47900   0.03450   0.00000  Uiso   1.00
N23    N    -0.35890  -0.25360   0.22590   0.00000  Uiso   1.00
H24    H    -0.37410  -0.22020   0.29680   0.00000  Uiso   1.00
O25    O    -0.19190  -0.15020   0.37300   0.00000  Uiso   1.00
O26    O    -0.27080  -0.18840   0.73370   0.00000  Uiso   1.00
O27    O    -0.19330  -0.26510   0.61110   0.00000  Uiso   1.00
O28    O    -0.22350  -0.27690   0.04120   0.00000  Uiso   1.00
H29    H    -0.18350  -0.27060   0.12450   0.00000  Uiso   1.00
H30    H    -0.21230  -0.28240   0.91050   0.00000  Uiso   1.00
O31    O    -0.11390  -0.09140   0.97190   0.00000  Uiso   1.00
H32    H    -0.09320  -0.12270   0.93830   0.00000  Uiso   1.00
H33    H    -0.10480  -0.05510   0.87340   0.00000  Uiso   1.00
Ni34   Ni    0.17086  -0.06892   0.06333   0.00000  Uiso   1.00
P35    P     0.22021  -0.02107   0.54040   0.00000  Uiso   1.00
C36    C     0.29640  -0.04140   0.39890   0.00000  Uiso   1.00
H37    H     0.34080   0.01110   0.33590   0.00000  Uiso   1.00
H38    H     0.32270  -0.06180   0.50120   0.00000  Uiso   1.00
C39    C     0.31140  -0.12270   0.08800   0.00000  Uiso   1.00
H40    H     0.34050  -0.07520   0.98640   0.00000  Uiso   1.00
C41    C     0.25900  -0.20230   0.95650   0.00000  Uiso   1.00
H42    H     0.22890  -0.24980   0.05220   0.00000  Uiso   1.00
H43    H     0.29580  -0.21220   0.86430   0.00000  Uiso   1.00
H44    H     0.21910  -0.19540   0.86910   0.00000  Uiso   1.00
C45    C     0.37970  -0.12840   0.22050   0.00000  Uiso   1.00
C46    C     0.35960  -0.18000   0.40400   0.00000  Uiso   1.00
H47    H     0.30310  -0.21280   0.44580   0.00000  Uiso   1.00
C48    C     0.42170  -0.18310   0.52400   0.00000  Uiso   1.00
H49    H     0.40700  -0.21670   0.64790   0.00000  Uiso   1.00
C50    C     0.50550  -0.13650   0.46200   0.00000  Uiso   1.00
H51    H     0.54780  -0.13800   0.54340   0.00000  Uiso   1.00
C52    C     0.52550  -0.08790   0.27720   0.00000  Uiso   1.00
H53    H     0.58180  -0.05770   0.23170   0.00000  Uiso   1.00
C54    C     0.46380  -0.08270   0.15730   0.00000  Uiso   1.00
H55    H     0.47900  -0.04850   0.03450   0.00000  Uiso   1.00
N56    N     0.25360  -0.10530   0.22590   0.00000  Uiso   1.00
H57    H     0.22020  -0.15390   0.29680   0.00000  Uiso   1.00
O58    O     0.15020  -0.04170   0.37300   0.00000  Uiso   1.00
O59    O     0.18840  -0.08240   0.73370   0.00000  Uiso   1.00
O60    O     0.26510   0.07180   0.61110   0.00000  Uiso   1.00
O61    O     0.27690   0.05340   0.04120   0.00000  Uiso   1.00
H62    H     0.27060   0.08710   0.12450   0.00000  Uiso   1.00
H63    H     0.28240   0.07010   0.91050   0.00000  Uiso   1.00
O64    O     0.09140  -0.02250   0.97190   0.00000  Uiso   1.00
H65    H     0.12270   0.02950   0.93830   0.00000  Uiso   1.00
H66    H     0.05510  -0.04970   0.87340   0.00000  Uiso   1.00
Ni67   Ni    0.06892   0.23978   0.06333   0.00000  Uiso   1.00
P68    P     0.02107   0.24128   0.54040   0.00000  Uiso   1.00
C69    C     0.04140   0.33780   0.39890   0.00000  Uiso   1.00
H70    H    -0.01110   0.32970   0.33590   0.00000  Uiso   1.00
H71    H     0.06180   0.38450   0.50120   0.00000  Uiso   1.00
C72    C     0.12270   0.43410   0.08800   0.00000  Uiso   1.00
H73    H     0.07520   0.41570   0.98640   0.00000  Uiso   1.00
C74    C     0.20230   0.46130   0.95650   0.00000  Uiso   1.00
H75    H     0.24980   0.47870   0.05220   0.00000  Uiso   1.00
H76    H     0.21220   0.50800   0.86430   0.00000  Uiso   1.00
H77    H     0.19540   0.41450   0.86910   0.00000  Uiso   1.00
C78    C     0.12840   0.50810   0.22050   0.00000  Uiso   1.00
C79    C     0.18000   0.53960   0.40400   0.00000  Uiso   1.00
H80    H     0.21280   0.51590   0.44580   0.00000  Uiso   1.00
C81    C     0.18310   0.60480   0.52400   0.00000  Uiso   1.00
H82    H     0.21670   0.62370   0.64790   0.00000  Uiso   1.00
C83    C     0.13650   0.64200   0.46200   0.00000  Uiso   1.00
H84    H     0.13800   0.68580   0.54340   0.00000  Uiso   1.00
C85    C     0.08790   0.61340   0.27720   0.00000  Uiso   1.00
H86    H     0.05770   0.63950   0.23170   0.00000  Uiso   1.00
C87    C     0.08270   0.54650   0.15730   0.00000  Uiso   1.00
H88    H     0.04850   0.52750   0.03450   0.00000  Uiso   1.00
N89    N     0.10530   0.35890   0.22590   0.00000  Uiso   1.00
H90    H     0.15390   0.37410   0.29680   0.00000  Uiso   1.00
O91    O     0.04170   0.19190   0.37300   0.00000  Uiso   1.00
O92    O     0.08240   0.27080   0.73370   0.00000  Uiso   1.00
O93    O    -0.07180   0.19330   0.61110   0.00000  Uiso   1.00
O94    O    -0.05340   0.22350   0.04120   0.00000  Uiso   1.00
H95    H    -0.08710   0.18350   0.12450   0.00000  Uiso   1.00
H96    H    -0.07010   0.21230   0.91050   0.00000  Uiso   1.00
O97    O     0.02250   0.11390   0.97190   0.00000  Uiso   1.00
H98    H    -0.02950   0.09320   0.93830   0.00000  Uiso   1.00
H99    H     0.04970   0.10480   0.87340   0.00000  Uiso   1.00
Ni100  Ni    0.23978   0.17086   0.56333   0.00000  Uiso   1.00
P101   P     0.24128   0.22021   0.04040   0.00000  Uiso   1.00
C102   C     0.33780   0.29640   0.89890   0.00000  Uiso   1.00
H103   H     0.32970   0.34080   0.83590   0.00000  Uiso   1.00
H104   H     0.38450   0.32270   0.00120   0.00000  Uiso   1.00
C105   C     0.43410   0.31140   0.58800   0.00000  Uiso   1.00
H106   H     0.41570   0.34050   0.48640   0.00000  Uiso   1.00
C107   C     0.46130   0.25900   0.45650   0.00000  Uiso   1.00
H108   H     0.47870   0.22890   0.55220   0.00000  Uiso   1.00
H109   H     0.50800   0.29580   0.36430   0.00000  Uiso   1.00
H110   H     0.41450   0.21910   0.36910   0.00000  Uiso   1.00
C111   C     0.50810   0.37970   0.72050   0.00000  Uiso   1.00
C112   C     0.53960   0.35960   0.90400   0.00000  Uiso   1.00
H113   H     0.51590   0.30310   0.94580   0.00000  Uiso   1.00
C114   C     0.60480   0.42170   0.02400   0.00000  Uiso   1.00
H115   H     0.62370   0.40700   0.14790   0.00000  Uiso   1.00
C116   C     0.64200   0.50550   0.96200   0.00000  Uiso   1.00
H117   H     0.68580   0.54780   0.04340   0.00000  Uiso   1.00
C118   C     0.61340   0.52550   0.77720   0.00000  Uiso   1.00
H119   H     0.63950   0.58180   0.73170   0.00000  Uiso   1.00
C120   C     0.54650   0.46380   0.65730   0.00000  Uiso   1.00
H121   H     0.52750   0.47900   0.53450   0.00000  Uiso   1.00
N122   N     0.35890   0.25360   0.72590   0.00000  Uiso   1.00
H123   H     0.37410   0.22020   0.79680   0.00000  Uiso   1.00
O124   O     0.19190   0.15020   0.87300   0.00000  Uiso   1.00
O125   O     0.27080   0.18840   0.23370   0.00000  Uiso   1.00
O126   O     0.19330   0.26510   0.11110   0.00000  Uiso   1.00
O127   O     0.22350   0.27690   0.54120   0.00000  Uiso   1.00
H128   H     0.18350   0.27060   0.62450   0.00000  Uiso   1.00
H129   H     0.21230   0.28240   0.41050   0.00000  Uiso   1.00
O130   O     0.11390   0.09140   0.47190   0.00000  Uiso   1.00
H131   H     0.09320   0.12270   0.43830   0.00000  Uiso   1.00
H132   H     0.10480   0.05510   0.37340   0.00000  Uiso   1.00
Ni133  Ni   -0.17086   0.06892   0.56333   0.00000  Uiso   1.00
P134   P    -0.22021   0.02107   0.04040   0.00000  Uiso   1.00
C135   C    -0.29640   0.04140   0.89890   0.00000  Uiso   1.00
H136   H    -0.34080  -0.01110   0.83590   0.00000  Uiso   1.00
H137   H    -0.32270   0.06180   0.00120   0.00000  Uiso   1.00
C138   C    -0.31140   0.12270   0.58800   0.00000  Uiso   1.00
H139   H    -0.34050   0.07520   0.48640   0.00000  Uiso   1.00
C140   C    -0.25900   0.20230   0.45650   0.00000  Uiso   1.00
H141   H    -0.22890   0.24980   0.55220   0.00000  Uiso   1.00
H142   H    -0.29580   0.21220   0.36430   0.00000  Uiso   1.00
H143   H    -0.21910   0.19540   0.36910   0.00000  Uiso   1.00
C144   C    -0.37970   0.12840   0.72050   0.00000  Uiso   1.00
C145   C    -0.35960   0.18000   0.90400   0.00000  Uiso   1.00
H146   H    -0.30310   0.21280   0.94580   0.00000  Uiso   1.00
C147   C    -0.42170   0.18310   0.02400   0.00000  Uiso   1.00
H148   H    -0.40700   0.21670   0.14790   0.00000  Uiso   1.00
C149   C    -0.50550   0.13650   0.96200   0.00000  Uiso   1.00
H150   H    -0.54780   0.13800   0.04340   0.00000  Uiso   1.00
C151   C    -0.52550   0.08790   0.77720   0.00000  Uiso   1.00
H152   H    -0.58180   0.05770   0.73170   0.00000  Uiso   1.00
C153   C    -0.46380   0.08270   0.65730   0.00000  Uiso   1.00
H154   H    -0.47900   0.04850   0.53450   0.00000  Uiso   1.00
N155   N    -0.25360   0.10530   0.72590   0.00000  Uiso   1.00
H156   H    -0.22020   0.15390   0.79680   0.00000  Uiso   1.00
O157   O    -0.15020   0.04170   0.87300   0.00000  Uiso   1.00
O158   O    -0.18840   0.08240   0.23370   0.00000  Uiso   1.00
O159   O    -0.26510  -0.07180   0.11110   0.00000  Uiso   1.00
O160   O    -0.27690  -0.05340   0.54120   0.00000  Uiso   1.00
H161   H    -0.27060  -0.08710   0.62450   0.00000  Uiso   1.00
H162   H    -0.28240  -0.07010   0.41050   0.00000  Uiso   1.00
O163   O    -0.09140   0.02250   0.47190   0.00000  Uiso   1.00
H164   H    -0.12270  -0.02950   0.43830   0.00000  Uiso   1.00
H165   H    -0.05510   0.04970   0.37340   0.00000  Uiso   1.00
Ni166  Ni   -0.06892  -0.23978   0.56333   0.00000  Uiso   1.00
P167   P    -0.02107  -0.24128   0.04040   0.00000  Uiso   1.00
C168   C    -0.04140  -0.33780   0.89890   0.00000  Uiso   1.00
H169   H     0.01110  -0.32970   0.83590   0.00000  Uiso   1.00
H170   H    -0.06180  -0.38450   0.00120   0.00000  Uiso   1.00
C171   C    -0.12270  -0.43410   0.58800   0.00000  Uiso   1.00
H172   H    -0.07520  -0.41570   0.48640   0.00000  Uiso   1.00
C173   C    -0.20230  -0.46130   0.45650   0.00000  Uiso   1.00
H174   H    -0.24980  -0.47870   0.55220   0.00000  Uiso   1.00
H175   H    -0.21220  -0.50800   0.36430   0.00000  Uiso   1.00
H176   H    -0.19540  -0.41450   0.36910   0.00000  Uiso   1.00
C177   C    -0.12840  -0.50810   0.72050   0.00000  Uiso   1.00
C178   C    -0.18000  -0.53960   0.90400   0.00000  Uiso   1.00
H179   H    -0.21280  -0.51590   0.94580   0.00000  Uiso   1.00
C180   C    -0.18310  -0.60480   0.02400   0.00000  Uiso   1.00
H181   H    -0.21670  -0.62370   0.14790   0.00000  Uiso   1.00
C182   C    -0.13650  -0.64200   0.96200   0.00000  Uiso   1.00
H183   H    -0.13800  -0.68580   0.04340   0.00000  Uiso   1.00
C184   C    -0.08790  -0.61340   0.77720   0.00000  Uiso   1.00
H185   H    -0.05770  -0.63950   0.73170   0.00000  Uiso   1.00
C186   C    -0.08270  -0.54650   0.65730   0.00000  Uiso   1.00
H187   H    -0.04850  -0.52750   0.53450   0.00000  Uiso   1.00
N188   N    -0.10530  -0.35890   0.72590   0.00000  Uiso   1.00
H189   H    -0.15390  -0.37410   0.79680   0.00000  Uiso   1.00
O190   O    -0.04170  -0.19190   0.87300   0.00000  Uiso   1.00
O191   O    -0.08240  -0.27080   0.23370   0.00000  Uiso   1.00
O192   O     0.07180  -0.19330   0.11110   0.00000  Uiso   1.00
O193   O     0.05340  -0.22350   0.54120   0.00000  Uiso   1.00
H194   H     0.08710  -0.18350   0.62450   0.00000  Uiso   1.00
H195   H     0.07010  -0.21230   0.41050   0.00000  Uiso   1.00
O196   O    -0.02250  -0.11390   0.47190   0.00000  Uiso   1.00
H197   H     0.02950  -0.09320   0.43830   0.00000  Uiso   1.00
H198   H    -0.04970  -0.10480   0.37340   0.00000  Uiso   1.00
loop_
_geom_bond_atom_site_label_1
_geom_bond_atom_site_label_2
_geom_bond_distance
_geom_bond_site_symmetry_2
_ccdc_geom_bond_type
Ni1    N23     2.166   .     S
Ni1    O25     2.054   .     S
Ni1    O28     2.094   .     S
Ni1    O31     2.080   1_554 S
Ni1    O26     2.091   1_554 S
Ni1    O159    2.089   .     S
P2     C3      1.823   .     S
P2     O26     1.534   .     S
P2     O27     1.525   .     S
P2     O25     1.532   .     S
C3     H4      0.970   .     S
C3     H5      0.970   .     S
C3     N23     1.479   .     S
C6     H7      0.980   1_554 S
C6     C8      1.509   1_554 S
C6     C12     1.532   .     S
C6     N23     1.502   .     S
H7     C6      0.980   1_556 S
C8     C6      1.509   1_556 S
C8     H9      0.959   1_556 S
C8     H10     0.961   .     S
C8     H11     0.960   .     S
H9     C8      0.959   1_554 S
C12    C13     1.397   .     S
C12    C21     1.381   .     S
C13    H14     0.929   .     S
C13    C15     1.374   .     S
C15    H16     0.930   .     S
C15    C17     1.375   .     S
C17    H18     0.929   .     S
C17    C19     1.375   .     S
C19    H20     0.930   .     S
C19    C21     1.385   .     S
C21    H22     0.930   .     S
N23    H24     0.896   .     S
O26    Ni1     2.091   1_556 S
O27    Ni166   2.089   .     S
O28    H29     0.850   .     S
O28    H30     0.849   1_554 S
H30    O28     0.849   1_556 S
O31    Ni1     2.080   1_556 S
O31    H32     0.849   .     S
O31    H33     0.850   .     S
Ni34   N56     2.166   .     S
Ni34   O58     2.054   .     S
Ni34   O61     2.094   .     S
Ni34   O64     2.080   1_554 S
Ni34   O59     2.091   1_554 S
Ni34   O192    2.089   .     S
P35    C36     1.823   .     S
P35    O59     1.534   .     S
P35    O60     1.525   .     S
P35    O58     1.532   .     S
C36    H37     0.970   .     S
C36    H38     0.970   .     S
C36    N56     1.479   .     S
C39    H40     0.980   1_554 S
C39    C41     1.509   1_554 S
C39    C45     1.532   .     S
C39    N56     1.502   .     S
H40    C39     0.980   1_556 S
C41    C39     1.509   1_556 S
C41    H42     0.959   1_556 S
C41    H43     0.961   .     S
C41    H44     0.960   .     S
H42    C41     0.959   1_554 S
C45    C46     1.397   .     S
C45    C54     1.381   .     S
C46    H47     0.929   .     S
C46    C48     1.374   .     S
C48    H49     0.930   .     S
C48    C50     1.375   .     S
C50    H51     0.929   .     S
C50    C52     1.375   .     S
C52    H53     0.930   .     S
C52    C54     1.385   .     S
C54    H55     0.930   .     S
N56    H57     0.896   .     S
O59    Ni34    2.091   1_556 S
O60    Ni100   2.089   .     S
O61    H62     0.850   .     S
O61    H63     0.849   1_554 S
H63    O61     0.849   1_556 S
O64    Ni34    2.080   1_556 S
O64    H65     0.849   .     S
O64    H66     0.850   .     S
Ni67   N89     2.166   .     S
Ni67   O91     2.054   .     S
Ni67   O94     2.094   .     S
Ni67   O97     2.080   1_554 S
Ni67   O92     2.091   1_554 S
Ni67   O126    2.089   .     S
P68    C69     1.823   .     S
P68    O92     1.534   .     S
P68    O93     1.525   .     S
P68    O91     1.532   .     S
C69    H70     0.970   .     S
C69    H71     0.970   .     S
C69    N89     1.479   .     S
C72    H73     0.980   1_554 S
C72    C74     1.509   1_554 S
C72    C78     1.532   .     S
C72    N89     1.502   .     S
H73    C72     0.980   1_556 S
C74    C72     1.509   1_556 S
C74    H75     0.959   1_556 S
C74    H76     0.961   .     S
C74    H77     0.960   .     S
H75    C74     0.959   1_554 S
C78    C79     1.397   .     S
C78    C87     1.381   .     S
C79    H80     0.929   .     S
C79    C81     1.374   .     S
C81    H82     0.930   .     S
C81    C83     1.375   .     S
C83    H84     0.929   .     S
C83    C85     1.375   .     S
C85    H86     0.930   .     S
C85    C87     1.385   .     S
C87    H88     0.930   .     S
N89    H90     0.896   .     S
O92    Ni67    2.091   1_556 S
O93    Ni133   2.089   .     S
O94    H95     0.850   .     S
O94    H96     0.849   1_554 S
H96    O94     0.849   1_556 S
O97    Ni67    2.080   1_556 S
O97    H98     0.849   .     S
O97    H99     0.850   .     S
Ni100  N122    2.166   .     S
Ni100  O124    2.054   .     S
Ni100  O127    2.094   .     S
Ni100  O130    2.080   .     S
Ni100  O125    2.091   .     S
P101   C102    1.823   1_554 S
P101   O125    1.534   .     S
P101   O126    1.525   .     S
P101   O124    1.532   1_554 S
C102   P101    1.823   1_556 S
C102   H103    0.970   .     S
C102   H104    0.970   1_556 S
C102   N122    1.479   .     S
H104   C102    0.970   1_554 S
C105   H106    0.980   .     S
C105   C107    1.509   .     S
C105   C111    1.532   .     S
C105   N122    1.502   .     S
C107   H108    0.959   .     S
C107   H109    0.961   .     S
C107   H110    0.960   .     S
C111   C112    1.397   .     S
C111   C120    1.381   .     S
C112   H113    0.929   .     S
C112   C114    1.374   1_556 S
C114   C112    1.374   1_554 S
C114   H115    0.930   .     S
C114   C116    1.375   1_554 S
C116   C114    1.375   1_556 S
C116   H117    0.929   1_556 S
C116   C118    1.375   .     S
H117   C116    0.929   1_554 S
C118   H119    0.930   .     S
C118   C120    1.385   .     S
C120   H121    0.930   .     S
N122   H123    0.896   .     S
O124   P101    1.532   1_556 S
O127   H128    0.850   .     S
O127   H129    0.849   .     S
O130   H131    0.849   .     S
O130   H132    0.850   .     S
Ni133  N155    2.166   .     S
Ni133  O157    2.054   .     S
Ni133  O160    2.094   .     S
Ni133  O163    2.080   .     S
Ni133  O158    2.091   .     S
P134   C135    1.823   1_554 S
P134   O158    1.534   .     S
P134   O159    1.525   .     S
P134   O157    1.532   1_554 S
C135   P134    1.823   1_556 S
C135   H136    0.970   .     S
C135   H137    0.970   1_556 S
C135   N155    1.479   .     S
H137   C135    0.970   1_554 S
C138   H139    0.980   .     S
C138   C140    1.509   .     S
C138   C144    1.532   .     S
C138   N155    1.502   .     S
C140   H141    0.959   .     S
C140   H142    0.961   .     S
C140   H143    0.960   .     S
C144   C145    1.397   .     S
C144   C153    1.381   .     S
C145   H146    0.929   .     S
C145   C147    1.374   1_556 S
C147   C145    1.374   1_554 S
C147   H148    0.930   .     S
C147   C149    1.375   1_554 S
C149   C147    1.375   1_556 S
C149   H150    0.929   1_556 S
C149   C151    1.375   .     S
H150   C149    0.929   1_554 S
C151   H152    0.930   .     S
C151   C153    1.385   .     S
C153   H154    0.930   .     S
N155   H156    0.896   .     S
O157   P134    1.532   1_556 S
O160   H161    0.850   .     S
O160   H162    0.849   .     S
O163   H164    0.849   .     S
O163   H165    0.850   .     S
Ni166  N188    2.166   .     S
Ni166  O190    2.054   .     S
Ni166  O193    2.094   .     S
Ni166  O196    2.080   .     S
Ni166  O191    2.091   .     S
P167   C168    1.823   1_554 S
P167   O191    1.534   .     S
P167   O192    1.525   .     S
P167   O190    1.532   1_554 S
C168   P167    1.823   1_556 S
C168   H169    0.970   .     S
C168   H170    0.970   1_556 S
C168   N188    1.479   .     S
H170   C168    0.970   1_554 S
C171   H172    0.980   .     S
C171   C173    1.509   .     S
C171   C177    1.532   .     S
C171   N188    1.502   .     S
C173   H174    0.959   .     S
C173   H175    0.961   .     S
C173   H176    0.960   .     S
C177   C178    1.397   .     S
C177   C186    1.381   .     S
C178   H179    0.929   .     S
C178   C180    1.374   1_556 S
C180   C178    1.374   1_554 S
C180   H181    0.930   .     S
C180   C182    1.375   1_554 S
C182   C180    1.375   1_556 S
C182   H183    0.929   1_556 S
C182   C184    1.375   .     S
H183   C182    0.929   1_554 S
C184   H185    0.930   .     S
C184   C186    1.385   .     S
C186   H187    0.930   .     S
N188   H189    0.896   .     S
O190   P167    1.532   1_556 S
O193   H194    0.850   .     S
O193   H195    0.849   .     S
O196   H197    0.849   .     S
O196   H198    0.850   .     S
