data_ZULMOK_FSR
_audit_creation_date              2024-06-11
_audit_creation_method            'Materials Studio'
_symmetry_space_group_name_H-M    'P1'
_symmetry_Int_Tables_number       1
_symmetry_cell_setting            triclinic
loop_
_symmetry_equiv_pos_as_xyz
  x,y,z
_cell_length_a                    18.3143
_cell_length_b                    18.3143
_cell_length_c                    6.1688
_cell_angle_alpha                 90.0000
_cell_angle_beta                  90.0000
_cell_angle_gamma                 120.0000
loop_
_atom_site_label
_atom_site_type_symbol
_atom_site_fract_x
_atom_site_fract_y
_atom_site_fract_z
_atom_site_U_iso_or_equiv
_atom_site_adp_type
_atom_site_occupancy
Co1    Co    0.07214  -0.16935   0.69758   0.00000  Uiso   1.00
P2     P     0.02202  -0.22061   0.21860   0.00000  Uiso   1.00
O3     O     0.04250  -0.15090   0.38610   0.00000  Uiso   1.00
O4     O     0.08300  -0.18810   0.02570   0.00000  Uiso   1.00
O5     O    -0.06970  -0.26550   0.15040   0.00000  Uiso   1.00
O6     O    -0.05410  -0.27890   0.71980   0.00000  Uiso   1.00
H7     H    -0.08910  -0.26620   0.62470   0.00000  Uiso   1.00
H8     H    -0.07050  -0.27820   0.85880   0.00000  Uiso   1.00
O9     O     0.02080  -0.09070   0.79110   0.00000  Uiso   1.00
H10    H    -0.02640  -0.12270   0.85160   0.00000  Uiso   1.00
H11    H     0.05120  -0.04350   0.88370   0.00000  Uiso   1.00
N12    N     0.10710  -0.25520   0.52680   0.00000  Uiso   1.00
H13    H     0.15080  -0.22740   0.47100   0.00000  Uiso   1.00
C14    C     0.04190  -0.29740   0.35850   0.00000  Uiso   1.00
H15    H    -0.00990  -0.34050   0.42480   0.00000  Uiso   1.00
H16    H     0.06030  -0.32450   0.25450   0.00000  Uiso   1.00
C17    C     0.12370  -0.31340   0.65910   0.00000  Uiso   1.00
H18    H     0.07660  -0.34180   0.76100   0.00000  Uiso   1.00
C19    C     0.20340  -0.26200   0.79450   0.00000  Uiso   1.00
H20    H     0.25120  -0.23340   0.70000   0.00000  Uiso   1.00
H21    H     0.21150  -0.29900   0.88900   0.00000  Uiso   1.00
H22    H     0.19760  -0.22130   0.87940   0.00000  Uiso   1.00
C23    C     0.12800  -0.38160   0.53060   0.00000  Uiso   1.00
C24    C     0.17980  -0.36130   0.34730   0.00000  Uiso   1.00
H25    H     0.21270  -0.30500   0.30710   0.00000  Uiso   1.00
C26    C     0.18320  -0.42270   0.22490   0.00000  Uiso   1.00
H27    H     0.21640  -0.40780   0.10080   0.00000  Uiso   1.00
C28    C     0.13740  -0.50590   0.28680   0.00000  Uiso   1.00
H29    H     0.14040  -0.54720   0.20640   0.00000  Uiso   1.00
C30    C     0.08710  -0.52760   0.46770   0.00000  Uiso   1.00
H31    H     0.05590  -0.58390   0.50950   0.00000  Uiso   1.00
C32    C     0.08260  -0.46570   0.58880   0.00000  Uiso   1.00
H33    H     0.04840  -0.48120   0.71130   0.00000  Uiso   1.00
Co34   Co    0.16935   0.24149   0.69758   0.00000  Uiso   1.00
P35    P     0.22061   0.24263   0.21860   0.00000  Uiso   1.00
O36    O     0.15090   0.19340   0.38610   0.00000  Uiso   1.00
O37    O     0.18810   0.27110   0.02570   0.00000  Uiso   1.00
O38    O     0.26550   0.19580   0.15040   0.00000  Uiso   1.00
O39    O     0.27890   0.22480   0.71980   0.00000  Uiso   1.00
H40    H     0.26620   0.17710   0.62470   0.00000  Uiso   1.00
H41    H     0.27820   0.20770   0.85880   0.00000  Uiso   1.00
O42    O     0.09070   0.11150   0.79110   0.00000  Uiso   1.00
H43    H     0.12270   0.09630   0.85160   0.00000  Uiso   1.00
H44    H     0.04350   0.09470   0.88370   0.00000  Uiso   1.00
N45    N     0.25520   0.36230   0.52680   0.00000  Uiso   1.00
H46    H     0.22740   0.37820   0.47100   0.00000  Uiso   1.00
C47    C     0.29740   0.33930   0.35850   0.00000  Uiso   1.00
H48    H     0.34050   0.33060   0.42480   0.00000  Uiso   1.00
H49    H     0.32450   0.38480   0.25450   0.00000  Uiso   1.00
C50    C     0.31340   0.43710   0.65910   0.00000  Uiso   1.00
H51    H     0.34180   0.41840   0.76100   0.00000  Uiso   1.00
C52    C     0.26200   0.46540   0.79450   0.00000  Uiso   1.00
H53    H     0.23340   0.48460   0.70000   0.00000  Uiso   1.00
H54    H     0.29900   0.51050   0.88900   0.00000  Uiso   1.00
H55    H     0.22130   0.41890   0.87940   0.00000  Uiso   1.00
C56    C     0.38160   0.50960   0.53060   0.00000  Uiso   1.00
C57    C     0.36130   0.54110   0.34730   0.00000  Uiso   1.00
H58    H     0.30500   0.51770   0.30710   0.00000  Uiso   1.00
C59    C     0.42270   0.60590   0.22490   0.00000  Uiso   1.00
H60    H     0.40780   0.62420   0.10080   0.00000  Uiso   1.00
C61    C     0.50590   0.64330   0.28680   0.00000  Uiso   1.00
H62    H     0.54720   0.68760   0.20640   0.00000  Uiso   1.00
C63    C     0.52760   0.61470   0.46770   0.00000  Uiso   1.00
H64    H     0.58390   0.63980   0.50950   0.00000  Uiso   1.00
C65    C     0.46570   0.54830   0.58880   0.00000  Uiso   1.00
H66    H     0.48120   0.52960   0.71130   0.00000  Uiso   1.00
Co67   Co   -0.24149  -0.07214   0.69758   0.00000  Uiso   1.00
P68    P    -0.24263  -0.02202   0.21860   0.00000  Uiso   1.00
O69    O    -0.19340  -0.04250   0.38610   0.00000  Uiso   1.00
O70    O    -0.27110  -0.08300   0.02570   0.00000  Uiso   1.00
O71    O    -0.19580   0.06970   0.15040   0.00000  Uiso   1.00
O72    O    -0.22480   0.05410   0.71980   0.00000  Uiso   1.00
H73    H    -0.17710   0.08910   0.62470   0.00000  Uiso   1.00
H74    H    -0.20770   0.07050   0.85880   0.00000  Uiso   1.00
O75    O    -0.11150  -0.02080   0.79110   0.00000  Uiso   1.00
H76    H    -0.09630   0.02640   0.85160   0.00000  Uiso   1.00
H77    H    -0.09470  -0.05120   0.88370   0.00000  Uiso   1.00
N78    N    -0.36230  -0.10710   0.52680   0.00000  Uiso   1.00
H79    H    -0.37820  -0.15080   0.47100   0.00000  Uiso   1.00
C80    C    -0.33930  -0.04190   0.35850   0.00000  Uiso   1.00
H81    H    -0.33060   0.00990   0.42480   0.00000  Uiso   1.00
H82    H    -0.38480  -0.06030   0.25450   0.00000  Uiso   1.00
C83    C    -0.43710  -0.12370   0.65910   0.00000  Uiso   1.00
H84    H    -0.41840  -0.07660   0.76100   0.00000  Uiso   1.00
C85    C    -0.46540  -0.20340   0.79450   0.00000  Uiso   1.00
H86    H    -0.48460  -0.25120   0.70000   0.00000  Uiso   1.00
H87    H    -0.51050  -0.21150   0.88900   0.00000  Uiso   1.00
H88    H    -0.41890  -0.19760   0.87940   0.00000  Uiso   1.00
C89    C    -0.50960  -0.12800   0.53060   0.00000  Uiso   1.00
C90    C    -0.54110  -0.17980   0.34730   0.00000  Uiso   1.00
H91    H    -0.51770  -0.21270   0.30710   0.00000  Uiso   1.00
C92    C    -0.60590  -0.18320   0.22490   0.00000  Uiso   1.00
H93    H    -0.62420  -0.21640   0.10080   0.00000  Uiso   1.00
C94    C    -0.64330  -0.13740   0.28680   0.00000  Uiso   1.00
H95    H    -0.68760  -0.14040   0.20640   0.00000  Uiso   1.00
C96    C    -0.61470  -0.08710   0.46770   0.00000  Uiso   1.00
H97    H    -0.63980  -0.05590   0.50950   0.00000  Uiso   1.00
C98    C    -0.54830  -0.08260   0.58880   0.00000  Uiso   1.00
H99    H    -0.52960  -0.04840   0.71130   0.00000  Uiso   1.00
Co100  Co   -0.07214   0.16935   0.19758   0.00000  Uiso   1.00
P101   P    -0.02202   0.22061   0.71860   0.00000  Uiso   1.00
O102   O    -0.04250   0.15090   0.88610   0.00000  Uiso   1.00
O103   O    -0.08300   0.18810   0.52570   0.00000  Uiso   1.00
O104   O     0.06970   0.26550   0.65040   0.00000  Uiso   1.00
O105   O     0.05410   0.27890   0.21980   0.00000  Uiso   1.00
H106   H     0.08910   0.26620   0.12470   0.00000  Uiso   1.00
H107   H     0.07050   0.27820   0.35880   0.00000  Uiso   1.00
O108   O    -0.02080   0.09070   0.29110   0.00000  Uiso   1.00
H109   H     0.02640   0.12270   0.35160   0.00000  Uiso   1.00
H110   H    -0.05120   0.04350   0.38370   0.00000  Uiso   1.00
N111   N    -0.10710   0.25520   0.02680   0.00000  Uiso   1.00
H112   H    -0.15080   0.22740   0.97100   0.00000  Uiso   1.00
C113   C    -0.04190   0.29740   0.85850   0.00000  Uiso   1.00
H114   H     0.00990   0.34050   0.92480   0.00000  Uiso   1.00
H115   H    -0.06030   0.32450   0.75450   0.00000  Uiso   1.00
C116   C    -0.12370   0.31340   0.15910   0.00000  Uiso   1.00
H117   H    -0.07660   0.34180   0.26100   0.00000  Uiso   1.00
C118   C    -0.20340   0.26200   0.29450   0.00000  Uiso   1.00
H119   H    -0.25120   0.23340   0.20000   0.00000  Uiso   1.00
H120   H    -0.21150   0.29900   0.38900   0.00000  Uiso   1.00
H121   H    -0.19760   0.22130   0.37940   0.00000  Uiso   1.00
C122   C    -0.12800   0.38160   0.03060   0.00000  Uiso   1.00
C123   C    -0.17980   0.36130   0.84730   0.00000  Uiso   1.00
H124   H    -0.21270   0.30500   0.80710   0.00000  Uiso   1.00
C125   C    -0.18320   0.42270   0.72490   0.00000  Uiso   1.00
H126   H    -0.21640   0.40780   0.60080   0.00000  Uiso   1.00
C127   C    -0.13740   0.50590   0.78680   0.00000  Uiso   1.00
H128   H    -0.14040   0.54720   0.70640   0.00000  Uiso   1.00
C129   C    -0.08710   0.52760   0.96770   0.00000  Uiso   1.00
H130   H    -0.05590   0.58390   0.00950   0.00000  Uiso   1.00
C131   C    -0.08260   0.46570   0.08880   0.00000  Uiso   1.00
H132   H    -0.04840   0.48120   0.21130   0.00000  Uiso   1.00
Co133  Co   -0.16935  -0.24149   0.19758   0.00000  Uiso   1.00
P134   P    -0.22061  -0.24263   0.71860   0.00000  Uiso   1.00
O135   O    -0.15090  -0.19340   0.88610   0.00000  Uiso   1.00
O136   O    -0.18810  -0.27110   0.52570   0.00000  Uiso   1.00
O137   O    -0.26550  -0.19580   0.65040   0.00000  Uiso   1.00
O138   O    -0.27890  -0.22480   0.21980   0.00000  Uiso   1.00
H139   H    -0.26620  -0.17710   0.12470   0.00000  Uiso   1.00
H140   H    -0.27820  -0.20770   0.35880   0.00000  Uiso   1.00
O141   O    -0.09070  -0.11150   0.29110   0.00000  Uiso   1.00
H142   H    -0.12270  -0.09630   0.35160   0.00000  Uiso   1.00
H143   H    -0.04350  -0.09470   0.38370   0.00000  Uiso   1.00
N144   N    -0.25520  -0.36230   0.02680   0.00000  Uiso   1.00
H145   H    -0.22740  -0.37820   0.97100   0.00000  Uiso   1.00
C146   C    -0.29740  -0.33930   0.85850   0.00000  Uiso   1.00
H147   H    -0.34050  -0.33060   0.92480   0.00000  Uiso   1.00
H148   H    -0.32450  -0.38480   0.75450   0.00000  Uiso   1.00
C149   C    -0.31340  -0.43710   0.15910   0.00000  Uiso   1.00
H150   H    -0.34180  -0.41840   0.26100   0.00000  Uiso   1.00
C151   C    -0.26200  -0.46540   0.29450   0.00000  Uiso   1.00
H152   H    -0.23340  -0.48460   0.20000   0.00000  Uiso   1.00
H153   H    -0.29900  -0.51050   0.38900   0.00000  Uiso   1.00
H154   H    -0.22130  -0.41890   0.37940   0.00000  Uiso   1.00
C155   C    -0.38160  -0.50960   0.03060   0.00000  Uiso   1.00
C156   C    -0.36130  -0.54110   0.84730   0.00000  Uiso   1.00
H157   H    -0.30500  -0.51770   0.80710   0.00000  Uiso   1.00
C158   C    -0.42270  -0.60590   0.72490   0.00000  Uiso   1.00
H159   H    -0.40780  -0.62420   0.60080   0.00000  Uiso   1.00
C160   C    -0.50590  -0.64330   0.78680   0.00000  Uiso   1.00
H161   H    -0.54720  -0.68760   0.70640   0.00000  Uiso   1.00
C162   C    -0.52760  -0.61470   0.96770   0.00000  Uiso   1.00
H163   H    -0.58390  -0.63980   0.00950   0.00000  Uiso   1.00
C164   C    -0.46570  -0.54830   0.08880   0.00000  Uiso   1.00
H165   H    -0.48120  -0.52960   0.21130   0.00000  Uiso   1.00
Co166  Co    0.24149   0.07214   0.19758   0.00000  Uiso   1.00
P167   P     0.24263   0.02202   0.71860   0.00000  Uiso   1.00
O168   O     0.19340   0.04250   0.88610   0.00000  Uiso   1.00
O169   O     0.27110   0.08300   0.52570   0.00000  Uiso   1.00
O170   O     0.19580  -0.06970   0.65040   0.00000  Uiso   1.00
O171   O     0.22480  -0.05410   0.21980   0.00000  Uiso   1.00
H172   H     0.17710  -0.08910   0.12470   0.00000  Uiso   1.00
H173   H     0.20770  -0.07050   0.35880   0.00000  Uiso   1.00
O174   O     0.11150   0.02080   0.29110   0.00000  Uiso   1.00
H175   H     0.09630  -0.02640   0.35160   0.00000  Uiso   1.00
H176   H     0.09470   0.05120   0.38370   0.00000  Uiso   1.00
N177   N     0.36230   0.10710   0.02680   0.00000  Uiso   1.00
H178   H     0.37820   0.15080   0.97100   0.00000  Uiso   1.00
C179   C     0.33930   0.04190   0.85850   0.00000  Uiso   1.00
H180   H     0.33060  -0.00990   0.92480   0.00000  Uiso   1.00
H181   H     0.38480   0.06030   0.75450   0.00000  Uiso   1.00
C182   C     0.43710   0.12370   0.15910   0.00000  Uiso   1.00
H183   H     0.41840   0.07660   0.26100   0.00000  Uiso   1.00
C184   C     0.46540   0.20340   0.29450   0.00000  Uiso   1.00
H185   H     0.48460   0.25120   0.20000   0.00000  Uiso   1.00
H186   H     0.51050   0.21150   0.38900   0.00000  Uiso   1.00
H187   H     0.41890   0.19760   0.37940   0.00000  Uiso   1.00
C188   C     0.50960   0.12800   0.03060   0.00000  Uiso   1.00
C189   C     0.54110   0.17980   0.84730   0.00000  Uiso   1.00
H190   H     0.51770   0.21270   0.80710   0.00000  Uiso   1.00
C191   C     0.60590   0.18320   0.72490   0.00000  Uiso   1.00
H192   H     0.62420   0.21640   0.60080   0.00000  Uiso   1.00
C193   C     0.64330   0.13740   0.78680   0.00000  Uiso   1.00
H194   H     0.68760   0.14040   0.70640   0.00000  Uiso   1.00
C195   C     0.61470   0.08710   0.96770   0.00000  Uiso   1.00
H196   H     0.63980   0.05590   0.00950   0.00000  Uiso   1.00
C197   C     0.54830   0.08260   0.08880   0.00000  Uiso   1.00
H198   H     0.52960   0.04840   0.21130   0.00000  Uiso   1.00
loop_
_geom_bond_atom_site_label_1
_geom_bond_atom_site_label_2
_geom_bond_distance
_geom_bond_site_symmetry_2
_ccdc_geom_bond_type
Co1    O3      2.070   .     S
Co1    O6      2.180   .     S
Co1    O9      2.155   .     S
Co1    N12     2.236   .     S
Co1    O4      2.079   1_556 S
Co1    O170    2.100   .     S
P2     O3      1.536   .     S
P2     O4      1.534   .     S
P2     O5      1.514   .     S
P2     C14     1.835   .     S
O4     Co1     2.079   1_554 S
O5     Co133   2.100   .     S
O6     H7      0.979   .     S
O6     H8      0.911   .     S
O9     H10     0.851   .     S
O9     H11     0.950   .     S
N12    H13     0.782   .     S
N12    C17     1.490   .     S
N12    C14     1.476   .     S
C14    H15     0.970   .     S
C14    H16     0.969   .     S
C17    H18     0.980   .     S
C17    C19     1.530   .     S
C17    C23     1.514   .     S
C19    H20     0.960   .     S
C19    H21     0.960   .     S
C19    H22     0.959   .     S
C23    C24     1.401   .     S
C23    C32     1.383   .     S
C24    H25     0.931   .     S
C24    C26     1.381   .     S
C26    H27     0.930   .     S
C26    C28     1.376   .     S
C28    H29     0.929   .     S
C28    C30     1.373   .     S
C30    H31     0.931   .     S
C30    C32     1.394   .     S
C32    H33     0.931   .     S
Co34   O36     2.070   .     S
Co34   O39     2.180   .     S
Co34   O42     2.155   .     S
Co34   N45     2.236   .     S
Co34   O37     2.079   1_556 S
Co34   O104    2.100   .     S
P35    O36     1.536   .     S
P35    O37     1.534   .     S
P35    O38     1.514   .     S
P35    C47     1.835   .     S
O37    Co34    2.079   1_554 S
O38    Co166   2.100   .     S
O39    H40     0.979   .     S
O39    H41     0.911   .     S
O42    H43     0.851   .     S
O42    H44     0.950   .     S
N45    H46     0.782   .     S
N45    C50     1.490   .     S
N45    C47     1.476   .     S
C47    H48     0.970   .     S
C47    H49     0.969   .     S
C50    H51     0.980   .     S
C50    C52     1.530   .     S
C50    C56     1.514   .     S
C52    H53     0.960   .     S
C52    H54     0.960   .     S
C52    H55     0.959   .     S
C56    C57     1.401   .     S
C56    C65     1.383   .     S
C57    H58     0.931   .     S
C57    C59     1.381   .     S
C59    H60     0.930   .     S
C59    C61     1.376   .     S
C61    H62     0.929   .     S
C61    C63     1.373   .     S
C63    H64     0.931   .     S
C63    C65     1.394   .     S
C65    H66     0.931   .     S
Co67   O69     2.070   .     S
Co67   O72     2.180   .     S
Co67   O75     2.155   .     S
Co67   N78     2.236   .     S
Co67   O70     2.079   1_556 S
Co67   O137    2.100   .     S
P68    O69     1.536   .     S
P68    O70     1.534   .     S
P68    O71     1.514   .     S
P68    C80     1.835   .     S
O70    Co67    2.079   1_554 S
O71    Co100   2.100   .     S
O72    H73     0.979   .     S
O72    H74     0.911   .     S
O75    H76     0.851   .     S
O75    H77     0.950   .     S
N78    H79     0.782   .     S
N78    C83     1.490   .     S
N78    C80     1.476   .     S
C80    H81     0.970   .     S
C80    H82     0.969   .     S
C83    H84     0.980   .     S
C83    C85     1.530   .     S
C83    C89     1.514   .     S
C85    H86     0.960   .     S
C85    H87     0.960   .     S
C85    H88     0.959   .     S
C89    C90     1.401   .     S
C89    C98     1.383   .     S
C90    H91     0.931   .     S
C90    C92     1.381   .     S
C92    H93     0.930   .     S
C92    C94     1.376   .     S
C94    H95     0.929   .     S
C94    C96     1.373   .     S
C96    H97     0.931   .     S
C96    C98     1.394   .     S
C98    H99     0.931   .     S
Co100  O102    2.070   1_554 S
Co100  O105    2.180   .     S
Co100  O108    2.155   .     S
Co100  N111    2.236   .     S
Co100  O103    2.079   .     S
P101   O102    1.536   .     S
P101   O103    1.534   .     S
P101   O104    1.514   .     S
P101   C113    1.835   .     S
O102   Co100   2.070   1_556 S
O105   H106    0.979   .     S
O105   H107    0.911   .     S
O108   H109    0.851   .     S
O108   H110    0.950   .     S
N111   H112    0.782   1_554 S
N111   C116    1.490   .     S
N111   C113    1.476   1_554 S
H112   N111    0.782   1_556 S
C113   H114    0.970   .     S
C113   H115    0.969   .     S
C113   N111    1.476   1_556 S
C116   H117    0.980   .     S
C116   C118    1.530   .     S
C116   C122    1.514   .     S
C118   H119    0.960   .     S
C118   H120    0.960   .     S
C118   H121    0.959   .     S
C122   C123    1.401   1_554 S
C122   C131    1.383   .     S
C123   C122    1.401   1_556 S
C123   H124    0.931   .     S
C123   C125    1.381   .     S
C125   H126    0.930   .     S
C125   C127    1.376   .     S
C127   H128    0.929   .     S
C127   C129    1.373   .     S
C129   H130    0.931   1_556 S
C129   C131    1.394   1_556 S
H130   C129    0.931   1_554 S
C131   H132    0.931   .     S
C131   C129    1.394   1_554 S
Co133  O135    2.070   1_554 S
Co133  O138    2.180   .     S
Co133  O141    2.155   .     S
Co133  N144    2.236   .     S
Co133  O136    2.079   .     S
P134   O135    1.536   .     S
P134   O136    1.534   .     S
P134   O137    1.514   .     S
P134   C146    1.835   .     S
O135   Co133   2.070   1_556 S
O138   H139    0.979   .     S
O138   H140    0.911   .     S
O141   H142    0.851   .     S
O141   H143    0.950   .     S
N144   H145    0.782   1_554 S
N144   C149    1.490   .     S
N144   C146    1.476   1_554 S
H145   N144    0.782   1_556 S
C146   H147    0.970   .     S
C146   H148    0.969   .     S
C146   N144    1.476   1_556 S
C149   H150    0.980   .     S
C149   C151    1.530   .     S
C149   C155    1.514   .     S
C151   H152    0.960   .     S
C151   H153    0.960   .     S
C151   H154    0.959   .     S
C155   C156    1.401   1_554 S
C155   C164    1.383   .     S
C156   C155    1.401   1_556 S
C156   H157    0.931   .     S
C156   C158    1.381   .     S
C158   H159    0.930   .     S
C158   C160    1.376   .     S
C160   H161    0.929   .     S
C160   C162    1.373   .     S
C162   H163    0.931   1_556 S
C162   C164    1.394   1_556 S
H163   C162    0.931   1_554 S
C164   H165    0.931   .     S
C164   C162    1.394   1_554 S
Co166  O168    2.070   1_554 S
Co166  O171    2.180   .     S
Co166  O174    2.155   .     S
Co166  N177    2.236   .     S
Co166  O169    2.079   .     S
P167   O168    1.536   .     S
P167   O169    1.534   .     S
P167   O170    1.514   .     S
P167   C179    1.835   .     S
O168   Co166   2.070   1_556 S
O171   H172    0.979   .     S
O171   H173    0.911   .     S
O174   H175    0.851   .     S
O174   H176    0.950   .     S
N177   H178    0.782   1_554 S
N177   C182    1.490   .     S
N177   C179    1.476   1_554 S
H178   N177    0.782   1_556 S
C179   H180    0.970   .     S
C179   H181    0.969   .     S
C179   N177    1.476   1_556 S
C182   H183    0.980   .     S
C182   C184    1.530   .     S
C182   C188    1.514   .     S
C184   H185    0.960   .     S
C184   H186    0.960   .     S
C184   H187    0.959   .     S
C188   C189    1.401   1_554 S
C188   C197    1.383   .     S
C189   C188    1.401   1_556 S
C189   H190    0.931   .     S
C189   C191    1.381   .     S
C191   H192    0.930   .     S
C191   C193    1.376   .     S
C193   H194    0.929   .     S
C193   C195    1.373   .     S
C195   H196    0.931   1_556 S
C195   C197    1.394   1_556 S
H196   C195    0.931   1_554 S
C197   H198    0.931   .     S
C197   C195    1.394   1_554 S
